
  OWA STORM WATER MANAGEMENT MODEL - VERSION v5.1.14 (OWA 2022-07-31)
  --------------------------------------------------------------

  INP file created by DSDAConvertToSwmmTools 
  version 0.0.1 EcoVista 
  Title/Notes: 
  
  
  *********************************************************
  NOTE: The summary statistics displayed in this report are
  based on results found at every computational time step,  
  not just on results from each reporting time step.
  *********************************************************
  
  ****************
  Analysis Options
  ****************
  Flow Units ............... CMS
  Process Models:
    Rainfall/Runoff ........ YES
    RDII ................... NO
    Snowmelt ............... NO
    Groundwater ............ NO
    Flow Routing ........... YES
    Ponding Allowed ........ NO
    Water Quality .......... NO
  Infiltration Method ...... GREEN_AMPT
  Flow Routing Method ...... DYNWAVE
  Surcharge Method ......... EXTRAN
  Starting Date ............ 07/15/2020 00:00:00
  Ending Date .............. 07/15/2020 08:00:00
  Antecedent Dry Days ...... 0.0
  Report Time Step ......... 00:30:00
  Wet Time Step ............ 00:05:00
  Dry Time Step ............ 01:00:00
  Routing Time Step ........ 30.00 sec
  Variable Time Step ....... YES
  Maximum Trials ........... 8
  Number of Threads ........ 1
  Head Tolerance ........... 0.001500 m
  
  
  **************************        Volume         Depth
  Runoff Quantity Continuity     hectare-m            mm
  **************************     ---------       -------
  Total Precipitation ......       146.272        36.600
  Evaporation Loss .........         2.616         0.655
  Infiltration Loss ........        39.090         9.781
  Surface Runoff ...........        96.581        24.166
  Final Storage ............         8.187         2.048
  Continuity Error (%) .....        -0.138
  
  
  **************************        Volume        Volume
  Flow Routing Continuity        hectare-m      10^6 ltr
  **************************     ---------     ---------
  Dry Weather Inflow .......         0.000         0.000
  Wet Weather Inflow .......        96.438       964.394
  Groundwater Inflow .......         0.000         0.000
  RDII Inflow ..............         0.000         0.000
  External Inflow ..........         0.000         0.000
  External Outflow .........         8.605        86.052
  Flooding Loss ............        86.227       862.283
  Evaporation Loss .........         0.000         0.000
  Exfiltration Loss ........         0.000         0.000
  Initial Stored Volume ....         0.000         0.000
  Final Stored Volume ......         1.439        14.393
  Continuity Error (%) .....         0.173
  
  
  *************************
  Highest Continuity Errors
  *************************
  Node jd51 (5.64%)
  Node jd64 (4.57%)
  Node jd59 (4.52%)
  Node jd31 (4.15%)
  Node jd55 (3.98%)
  
  
  ***************************
  Time-Step Critical Elements
  ***************************
  Link GQ73 (93.34%)
  
  
  ********************************
  Highest Flow Instability Indexes
  ********************************
  Link GQ67 (25)
  Link GQ114 (13)
  Link GQ29 (5)
  Link GQ46 (5)
  Link GQ121 (4)
  
  
  *************************
  Routing Time Step Summary
  *************************
  Minimum Time Step           :     3.13 sec
  Average Time Step           :     7.56 sec
  Maximum Time Step           :    30.00 sec
  Percent in Steady State     :     0.00
  Average Iterations per Step :     4.94
  Percent Not Converging      :    23.20
  
  
  ***************************
  Subcatchment Runoff Summary
  ***************************
  
  ------------------------------------------------------------------------------------------------------------------------------
                            Total      Total      Total      Total     Imperv       Perv      Total       Total     Peak  Runoff
                           Precip      Runon       Evap      Infil     Runoff     Runoff     Runoff      Runoff   Runoff   Coeff
  Subcatchment                 mm         mm         mm         mm         mm         mm         mm    10^6 ltr      CMS
  ------------------------------------------------------------------------------------------------------------------------------
  1                         36.60       0.00       0.39      20.51      14.65       0.00      14.65        5.80     0.61   0.400
  2                         36.60       0.00       0.70       7.79      25.74       0.00      25.74       23.28     2.46   0.703
  3                         36.60       0.00       0.73       6.68      27.03       0.00      27.03       10.82     1.14   0.739
  4                         36.60       0.00       0.75       5.74      28.04       0.00      28.04        2.35     0.25   0.766
  5                         36.60       0.00       0.67       9.32      24.79       0.00      24.79        3.07     0.32   0.677
  6                         36.60       0.00       0.64      10.49      23.79       0.00      23.79        2.21     0.23   0.650
  7                         36.60       0.00       0.66       9.36      24.46       0.00      24.46       10.67     1.13   0.668
  8                         36.60       0.00       0.84       2.05      31.16       0.00      31.16        4.34     0.46   0.851
  9                         36.60       0.00       0.87       1.02      32.16       0.00      32.16        3.76     0.40   0.879
  10                        36.60       0.00       0.75       5.95      27.71       0.00      27.71        6.24     0.66   0.757
  11                        36.60       0.00       0.81       3.50      29.81       0.00      29.81       14.78     1.56   0.814
  12                        36.60       0.00       0.64      10.52      23.58       0.00      23.58       11.50     1.21   0.644
  13                        36.60       0.00       0.80       3.95      29.43       0.00      29.43       13.31     1.41   0.804
  14                        36.60       0.00       0.80       3.99      29.52       0.00      29.52        5.57     0.59   0.807
  15                        36.60       0.00       0.74       6.44      27.24       0.00      27.24        9.21     0.97   0.744
  16                        36.60       0.00       0.76       5.32      28.21       0.00      28.21        8.33     0.88   0.771
  17                        36.60       0.00       0.72       7.31      26.45       0.00      26.45       11.07     1.17   0.723
  18                        36.60       0.00       0.82       2.88      30.36       0.00      30.36       12.54     1.33   0.830
  19                        36.60       0.00       0.82       3.01      30.21       0.00      30.21        6.79     0.72   0.825
  20                        36.60       0.00       0.81       3.21      29.85       0.00      29.85       16.02     1.69   0.815
  21                        36.60       0.00       0.87       1.08      31.96       0.00      31.96       10.03     1.06   0.873
  22                        36.60       0.00       0.85       1.73      31.34       0.00      31.34        3.85     0.41   0.856
  23                        36.60       0.00       0.78       4.48      28.85       0.00      28.85       16.52     1.75   0.788
  24                        36.60       0.00       0.76       5.59      27.84       0.00      27.84        4.94     0.52   0.761
  25                        36.60       0.00       0.81       3.43      29.98       0.00      29.98        6.07     0.64   0.819
  26                        36.60       0.00       0.69       8.35      25.29       0.00      25.29        8.88     0.94   0.691
  27                        36.60       0.00       0.83       2.74      30.28       0.00      30.28       12.79     1.35   0.827
  28                        36.60       0.00       0.84       2.02      31.02       0.00      31.02       14.66     1.55   0.847
  29                        36.60       0.00       0.75       5.68      28.00       0.00      28.00        6.54     0.69   0.765
  30                        36.60       0.00       0.86       1.24      32.11       0.00      32.11        2.30     0.24   0.877
  31                        36.60       0.00       0.87       0.77      32.29       0.00      32.29        7.12     0.75   0.882
  32                        36.60       0.00       0.85       1.63      31.48       0.00      31.48       13.60     1.44   0.860
  33                        36.60       0.00       0.86       1.19      31.82       0.00      31.82       11.21     1.19   0.869
  34                        36.60       0.00       0.80       3.71      29.64       0.00      29.64        8.69     0.92   0.810
  35                        36.60       0.00       0.83       2.76      30.47       0.00      30.47       12.64     1.34   0.833
  36                        36.60       0.00       0.68       8.72      25.23       0.00      25.23        9.93     1.05   0.689
  37                        36.60       0.00       0.85       1.98      31.17       0.00      31.17        6.92     0.73   0.852
  38                        36.60       0.00       0.79       4.14      29.28       0.00      29.28       11.17     1.18   0.800
  39                        36.60       0.00       0.72       7.28      26.51       0.00      26.51       11.19     1.18   0.724
  40                        36.60       0.00       0.80       3.96      29.43       0.00      29.43        6.73     0.71   0.804
  41                        36.60       0.00       0.81       3.22      30.19       0.00      30.19        5.95     0.63   0.825
  42                        36.60       0.00       0.81       3.25      29.87       0.00      29.87        7.38     0.78   0.816
  43                        36.60       0.00       0.68       8.56      25.20       0.00      25.20       19.92     2.10   0.688
  44                        36.60       0.00       0.73       6.67      26.87       0.00      26.87       12.99     1.37   0.734
  45                        36.60       0.00       0.69       8.49      25.32       0.00      25.32       18.32     1.93   0.692
  46                        36.60       0.00       0.66       9.46      24.62       0.00      24.62       12.31     1.29   0.673
  47                        36.60       0.00       0.70       8.09      25.67       0.00      25.67       29.93     3.16   0.701
  48                        36.60       0.00       0.83       2.53      30.43       0.00      30.43       17.66     1.87   0.831
  49                        36.60       0.00       0.76       5.42      27.87       0.00      27.87       18.87     1.99   0.762
  50                        36.60       0.00       0.84       2.06      30.67       0.00      30.67       12.05     1.27   0.838
  51                        36.60       0.00       0.81       3.56      29.40       0.00      29.40        5.50     0.58   0.803
  52                        36.60       0.00       0.39      20.53      14.69       0.00      14.69       15.07     1.57   0.401
  53                        36.60       0.00       0.57      13.33      21.15       0.00      21.15       22.53     2.36   0.578
  54                        36.60       0.00       0.70       7.88      25.95       0.00      25.95        6.33     0.67   0.709
  55                        36.60       0.00       0.40      20.16      15.02       0.00      15.02       11.85     1.24   0.410
  56                        36.60       0.00       0.15      30.40       5.76       0.00       5.76        4.69     0.48   0.157
  57                        36.60       0.00       0.79       4.08      29.08       0.00      29.08       24.16     2.55   0.794
  58                        36.60       0.00       0.74       6.47      27.21       0.00      27.21        4.48     0.47   0.743
  59                        36.60       0.00       0.72       7.19      26.73       0.00      26.73        3.40     0.36   0.730
  60                        36.60       0.00       0.27      25.58      10.14       0.00      10.14        2.90     0.30   0.277
  61                        36.60       0.00       0.42      19.46      15.55       0.00      15.55        5.86     0.62   0.425
  62                        36.60       0.00       0.58      12.73      21.50       0.00      21.50       25.19     2.65   0.587
  63                        36.60       0.00       0.79       4.03      28.98       0.00      28.98       56.05     5.92   0.792
  64                        36.60       0.00       0.59      12.31      22.03       0.00      22.03        4.73     0.50   0.602
  65                        36.60       0.00       0.81       3.57      29.43       0.00      29.43       19.80     2.09   0.804
  66                        36.60       0.00       0.63      10.59      23.37       0.00      23.37        5.96     0.63   0.639
  67                        36.60       0.00       0.59      12.29      22.10       0.00      22.10        7.15     0.75   0.604
  68                        36.60       0.00       0.71       7.43      26.40       0.00      26.40        2.93     0.31   0.721
  69                        36.60       0.00       0.42      19.48      15.72       0.00      15.72        5.03     0.52   0.430
  70                        36.60       0.00       0.59      12.51      21.76       0.00      21.76       17.90     1.89   0.595
  71                        36.60       0.00       0.73       6.84      26.92       0.00      26.92        3.30     0.35   0.735
  72                        36.60       0.00       0.77       5.22      28.37       0.00      28.37        3.53     0.37   0.775
  73                        36.60       0.00       0.69       8.17      25.81       0.00      25.81        4.29     0.45   0.705
  74                        36.60       0.00       0.66       9.51      24.59       0.00      24.59        5.29     0.56   0.672
  75                        36.60       0.00       0.74       6.48      27.26       0.00      27.26        3.93     0.41   0.745
  76                        36.60       0.00       0.77       4.92      28.70       0.00      28.70        2.78     0.29   0.784
  77                        36.60       0.00       0.82       2.82      30.49       0.00      30.49        3.30     0.35   0.833
  78                        36.60       0.00       0.80       4.01      29.39       0.00      29.39        3.23     0.34   0.803
  79                        36.60       0.00       0.35      22.30      13.10       0.00      13.10       13.89     1.45   0.358
  80                        36.60       0.00       0.66       9.66      24.23       0.00      24.23       15.17     1.60   0.662
  81                        36.60       0.00       0.67       9.23      24.59       0.00      24.59       10.72     1.13   0.672
  82                        36.60       0.00       0.64      10.39      23.57       0.00      23.57       21.61     2.28   0.644
  83                        36.60       0.00       0.80       3.84      29.63       0.00      29.63        3.62     0.38   0.809
  84                        36.60       0.00       0.75       5.68      27.89       0.00      27.89        3.33     0.35   0.762
  85                        36.60       0.00       0.89       0.28      32.87       0.00      32.87        3.06     0.32   0.898
  86                        36.60       0.00       0.82       3.09      30.25       0.00      30.25        4.46     0.47   0.826
  87                        36.60       0.00       0.87       0.78      32.23       0.00      32.23        4.24     0.45   0.880
  88                        36.60       0.00       0.78       4.56      28.99       0.00      28.99        2.78     0.29   0.792
  89                        36.60       0.00       0.82       2.94      30.43       0.00      30.43        5.86     0.62   0.831
  90                        36.60       0.00       0.89       0.01      33.21       0.00      33.21        0.38     0.04   0.907
  91                        36.60       0.00       0.74       6.13      27.25       0.00      27.25        5.94     0.63   0.745
  92                        36.60       0.00       0.82       2.85      30.47       0.00      30.47        3.81     0.40   0.833
  93                        36.60       0.00       0.67       9.09      24.83       0.00      24.83       12.71     1.34   0.678
  94                        36.60       0.00       0.60      11.86      22.61       0.00      22.61        1.58     0.17   0.618
  95                        36.60       0.00       0.89       0.04      33.07       0.00      33.07        0.72     0.08   0.904
  96                        36.60       0.00       0.72       7.09      26.73       0.00      26.73        3.27     0.34   0.730
  97                        36.60       0.00       0.87       0.78      32.35       0.00      32.35        3.21     0.34   0.884
  98                        36.60       0.00       0.72       6.91      26.91       0.00      26.91        3.32     0.35   0.735
  99                        36.60       0.00       0.36      21.90      13.49       0.00      13.49        5.01     0.52   0.369
  100                       36.60       0.00       0.40      20.25      15.00       0.00      15.00        3.85     0.40   0.410
  101                       36.60       0.00       0.41      19.85      15.30       0.00      15.30        7.50     0.78   0.418
  102                       36.60       0.00       0.67       9.31      24.69       0.00      24.69        6.02     0.63   0.674
  103                       36.60       0.00       0.22      27.48       8.45       0.00       8.45        3.07     0.32   0.231
  104                       36.60       0.00       0.15      30.43       5.71       0.00       5.71        5.53     0.57   0.156
  105                       36.60       0.00       0.73       6.50      27.29       0.00      27.29        3.57     0.38   0.746
  106                       36.60       0.00       0.40      20.29      14.92       0.00      14.92        3.64     0.38   0.408
  
  
  ******************
  Node Depth Summary
  ******************
  
  ---------------------------------------------------------------------------------
                                 Average  Maximum  Maximum  Time of Max    Reported
                                   Depth    Depth      HGL   Occurrence   Max Depth
  Node                 Type       Meters   Meters   Meters  days hr:min      Meters
  ---------------------------------------------------------------------------------
  jd1                  JUNCTION     0.14     0.21   273.21     0  05:00        0.21
  jd2                  JUNCTION     0.96     3.00   270.00     0  04:24        3.00
  jd3                  JUNCTION     2.71     3.00   266.00     0  02:31        3.00
  jd4                  JUNCTION     2.01     3.00   270.00     0  02:45        3.00
  jd5                  JUNCTION     0.10     0.15   274.15     0  05:00        0.15
  jd6                  JUNCTION     0.12     0.19   275.19     0  05:00        0.19
  jd7                  JUNCTION     0.37     0.51   264.61     0  05:00        0.51
  jd8                  JUNCTION     2.26     3.00   267.00     0  02:32        3.00
  jd9                  JUNCTION     2.04     3.00   268.00     0  02:36        3.00
  jd10                 JUNCTION     2.73     3.00   273.00     0  02:26        3.00
  jd11                 JUNCTION     0.11     0.17   282.17     0  05:00        0.17
  jd12                 JUNCTION     2.74     3.00   272.00     0  02:24        3.00
  jd13                 JUNCTION     0.13     0.21   289.21     0  05:00        0.21
  jd14                 JUNCTION     0.57     3.00   283.00     0  04:28        2.52
  jd15                 JUNCTION     0.31     0.54   278.54     0  05:00        0.54
  jd16                 JUNCTION     0.34     0.57   274.57     0  05:00        0.57
  jd17                 JUNCTION     2.54     3.00   278.80     0  02:35        3.00
  jd18                 JUNCTION     0.87     3.00   282.00     0  04:32        3.00
  jd19                 JUNCTION     1.72     3.00   270.00     0  02:40        3.00
  jd20                 JUNCTION     0.22     0.32   273.32     0  05:00        0.32
  jd21                 JUNCTION     2.71     3.00   273.00     0  02:30        3.00
  jd22                 JUNCTION     2.09     3.00   275.00     0  02:33        3.00
  jd23                 JUNCTION     0.28     0.50   278.50     0  05:00        0.50
  jd24                 JUNCTION     0.15     0.24   285.24     0  05:00        0.24
  jd25                 JUNCTION     0.27     0.45   279.45     0  05:00        0.45
  jd26                 JUNCTION     0.80     3.00   288.00     0  04:25        3.00
  jd27                 JUNCTION     0.24     0.40   291.40     0  05:00        0.40
  jd28                 JUNCTION     2.75     3.00   290.00     0  02:22        3.00
  jd29                 JUNCTION     0.11     0.17   299.17     0  05:00        0.17
  jd30                 JUNCTION     0.15     0.23   290.23     0  05:00        0.23
  jd31                 JUNCTION     1.07     3.00   275.00     0  02:38        1.52
  jd32                 JUNCTION     2.74     3.00   275.00     0  02:25        3.00
  jd33                 JUNCTION     0.21     0.34   289.34     0  05:00        0.34
  jd34                 JUNCTION     0.25     0.45   294.45     0  05:00        0.45
  jd35                 JUNCTION     2.77     3.00   292.00     0  02:18        3.00
  jd36                 JUNCTION     1.28     3.00   302.00     0  04:18        3.00
  jd37                 JUNCTION     1.26     3.00   306.00     0  04:18        3.00
  jd38                 JUNCTION     0.46     0.80   297.80     0  05:00        0.80
  jd39                 JUNCTION     2.71     3.00   297.00     0  02:30        3.00
  jd40                 JUNCTION     1.67     3.00   302.00     0  02:53        3.00
  jd41                 JUNCTION     2.66     3.00   296.00     0  02:44        3.00
  jd42                 JUNCTION     0.22     0.35   305.35     0  05:00        0.35
  jd43                 JUNCTION     1.59     3.00   300.00     0  02:48        3.00
  jd44                 JUNCTION     1.60     3.00   286.00     0  02:52        3.00
  jd45                 JUNCTION     2.72     3.00   282.00     0  02:29        3.00
  jd46                 JUNCTION     0.32     0.52   275.52     0  05:00        0.52
  jd47                 JUNCTION     0.17     0.27   315.27     0  05:00        0.27
  jd48                 JUNCTION     0.12     0.19   325.19     0  05:00        0.19
  jd49                 JUNCTION     0.29     0.47   289.47     0  05:00        0.47
  jd50                 JUNCTION     2.75     3.00   278.00     0  02:21        3.00
  jd51                 JUNCTION     2.64     3.00   313.00     0  02:45        3.00
  jd52                 JUNCTION     0.94     3.00   326.00     0  04:25        2.02
  jd53                 JUNCTION     1.24     3.00   325.00     0  04:22        3.00
  jd54                 JUNCTION     0.32     0.50   326.50     0  05:00        0.50
  jd55                 JUNCTION     1.90     3.00   325.00     0  02:42        3.00
  jd56                 JUNCTION     0.21     0.35   327.35     0  05:00        0.35
  jd59                 JUNCTION     2.62     3.00   320.80     0  02:48        3.00
  jd60                 JUNCTION     2.75     3.00   319.00     0  02:23        3.00
  jd61                 JUNCTION     0.16     0.25   329.25     0  05:00        0.25
  jd62                 JUNCTION     0.07     0.11   335.11     0  05:00        0.11
  jd63                 JUNCTION     0.08     0.12   324.12     0  05:00        0.12
  jd64                 JUNCTION     2.46     3.00   321.00     0  02:48        2.87
  jd65                 JUNCTION     2.44     3.00   307.00     0  02:34        3.00
  jd66                 JUNCTION     2.73     3.00   304.00     0  02:27        3.00
  jd69                 JUNCTION     0.26     0.41   333.41     0  05:00        0.41
  jd79                 JUNCTION     2.74     3.00   274.00     0  02:23        3.00
  jd80                 JUNCTION     2.61     3.00   279.00     0  02:27        3.00
  jd81                 JUNCTION     0.16     0.26   288.26     0  05:00        0.26
  jd83                 JUNCTION     2.78     3.00   323.00     0  02:16        3.00
  jd84                 JUNCTION     0.29     0.55   323.55     0  05:00        0.55
  jd85                 JUNCTION     2.74     3.00   324.00     0  02:25        3.00
  jd87                 JUNCTION     2.74     3.00   322.00     0  02:25        3.00
  jd89                 JUNCTION     0.18     0.28   324.28     0  05:00        0.28
  jd90                 JUNCTION     0.15     0.25   328.25     0  05:00        0.25
  jd92                 JUNCTION     0.16     0.25   326.25     0  05:00        0.25
  jd93                 JUNCTION     1.22     3.00   327.00     0  04:20        3.00
  jd94                 JUNCTION     0.53     3.00   329.20     0  04:32        1.67
  jd95                 JUNCTION     0.51     3.00   330.00     0  04:36        1.66
  jd96                 JUNCTION     2.76     3.00   308.00     0  02:20        3.00
  jd97                 JUNCTION     0.51     3.00   330.20     0  04:36        1.69
  jd98                 JUNCTION     0.21     0.34   329.34     0  05:00        0.34
  jd99                 JUNCTION     2.73     3.00   327.00     0  02:27        3.00
  jd101                JUNCTION     0.12     0.19   321.19     0  05:00        0.19
  jd102                JUNCTION     0.27     0.44   324.44     0  05:00        0.44
  jd103                JUNCTION     0.13     0.20   318.20     0  05:00        0.20
  jd106                JUNCTION     2.68     3.00   287.00     0  02:37        3.00
  jd107                JUNCTION     0.24     0.37   332.37     0  05:00        0.37
  jd108                JUNCTION     1.17     1.87   327.87     0  02:23        1.44
  jd109                JUNCTION     0.18     0.29   343.29     0  05:00        0.29
  jd110                JUNCTION     2.75     3.00   327.00     0  02:24        3.00
  jd111                JUNCTION     0.08     0.12   344.12     0  05:00        0.12
  jd112                JUNCTION     0.10     0.16   334.16     0  05:00        0.16
  jd113                JUNCTION     0.11     0.18   348.18     0  05:00        0.18
  jd114                JUNCTION     2.73     3.00   317.00     0  02:28        3.00
  jd117                JUNCTION     1.37     3.00   319.00     0  02:31        2.33
  jd118                JUNCTION     0.10     0.16   330.16     0  05:00        0.16
  jd120                JUNCTION     0.18     0.28   327.28     0  05:00        0.28
  jd121                JUNCTION     0.18     0.29   320.29     0  05:00        0.29
  jd122                JUNCTION     2.72     3.00   276.00     0  02:29        3.00
  jd123                JUNCTION     2.70     3.00   276.20     0  02:31        3.00
  jd124                JUNCTION     2.78     3.00   271.00     0  02:13        3.00
  jd125                JUNCTION     1.87     3.00   278.00     0  02:43        3.00
  jd126                JUNCTION     2.77     3.00   275.00     0  02:17        3.00
  jd135                JUNCTION     0.15     0.24   289.24     0  05:00        0.24
  jd136                JUNCTION     0.29     0.48   341.48     0  05:00        0.48
  psk1                 OUTFALL      0.10     0.16   279.16     0  05:00        0.16
  psk2                 OUTFALL      0.15     0.23   270.23     0  05:00        0.23
  psk3                 OUTFALL      0.34     0.57   271.57     0  05:00        0.57
  psk4                 OUTFALL      0.00     0.00   280.00     0  00:00        0.00
  psk5                 OUTFALL      0.14     0.21   263.21     0  05:00        0.21
  psk6                 OUTFALL      0.10     0.15   259.15     0  05:00        0.15
  psk7                 OUTFALL      0.37     0.51   262.51     0  05:00        0.51
  psk8                 OUTFALL      0.00     0.00   317.00     0  00:00        0.00
  
  
  *******************
  Node Inflow Summary
  *******************
  
  -------------------------------------------------------------------------------------------------
                                  Maximum  Maximum                  Lateral       Total        Flow
                                  Lateral    Total  Time of Max      Inflow      Inflow     Balance
                                   Inflow   Inflow   Occurrence      Volume      Volume       Error
  Node                 Type           CMS      CMS  days hr:min    10^6 ltr    10^6 ltr     Percent
  -------------------------------------------------------------------------------------------------
  jd1                  JUNCTION     0.607    0.956     0  05:00        5.79        9.29       0.222
  jd2                  JUNCTION     0.937    1.272     0  05:00        8.86        12.1       0.351
  jd3                  JUNCTION     1.126    2.844     0  05:00        10.6        31.1       1.288
  jd4                  JUNCTION     1.354    1.509     0  05:00        12.8        14.3       0.412
  jd5                  JUNCTION     0.397    0.665     0  05:00        3.76        6.44       0.097
  jd6                  JUNCTION     0.458    0.458     0  05:00        4.33        4.33       0.131
  jd7                  JUNCTION     0.231    2.197     0  05:00        2.21        27.1       0.260
  jd8                  JUNCTION     0.322    1.268     0  05:00        3.06          18       1.334
  jd9                  JUNCTION     0.247    1.315     0  05:00        2.35        17.8       0.376
  jd10                 JUNCTION     0.658    0.834     0  05:00        6.23        7.91       1.273
  jd11                 JUNCTION     0.971    0.971     0  05:00         9.2         9.2       0.144
  jd12                 JUNCTION     0.731    1.601     0  05:00        6.91          15       0.910
  jd13                 JUNCTION     1.325    1.325     0  05:00        12.5        12.5       0.129
  jd14                 JUNCTION     1.552    1.752     0  05:00        14.6        16.5       0.249
  jd15                 JUNCTION     0.640    1.556     0  05:00        6.06        13.7       0.669
  jd16                 JUNCTION     0.688    2.840     0  05:00        6.53        25.6       0.268
  jd17                 JUNCTION     1.438    3.188     0  05:00        13.6        33.2       2.437
  jd18                 JUNCTION     1.141    1.663     0  05:00        10.8        15.7       0.372
  jd19                 JUNCTION     1.059    1.907     0  05:00          10        19.3       0.275
  jd20                 JUNCTION     0.880    1.122     0  05:00        8.32        12.8       0.515
  jd21                 JUNCTION     0.408    2.602     0  05:00        3.85        28.9       1.167
  jd22                 JUNCTION     0.718    1.523     0  05:00        6.78        14.8       0.545
  jd23                 JUNCTION     0.711    2.081     0  05:00        6.72          19       0.206
  jd24                 JUNCTION     1.168    1.168     0  05:00        11.1        11.1       0.147
  jd25                 JUNCTION     0.918    1.334     0  05:00        8.68        12.6       0.281
  jd26                 JUNCTION     1.336    2.139     0  05:00        12.6        20.9       0.229
  jd27                 JUNCTION     1.373    2.050     0  05:00          13          21       0.261
  jd28                 JUNCTION     1.868    2.462     0  05:00        17.6        24.2       0.553
  jd29                 JUNCTION     0.752    0.752     0  05:00        7.11        7.11       0.082
  jd30                 JUNCTION     0.781    2.427     0  05:00        7.37        22.2       0.141
  jd31                 JUNCTION     0.522    1.167     0  02:37        4.93        10.7       4.332
  jd32                 JUNCTION     1.061    3.648     0  05:00          10        39.8       0.621
  jd33                 JUNCTION     1.045    1.809     0  05:00        9.91        16.8       0.141
  jd34                 JUNCTION     1.293    1.293     0  05:00        12.3        12.3       0.119
  jd35                 JUNCTION     1.180    3.143     0  05:00        11.2        35.1       0.369
  jd36                 JUNCTION     1.995    2.946     0  05:00        18.8        29.7       0.295
  jd37                 JUNCTION     2.100    2.100     0  05:00        19.9        19.9       0.213
  jd38                 JUNCTION     1.932    2.875     0  05:00        18.3        29.4       0.407
  jd39                 JUNCTION     1.340    3.919     0  05:00        12.7        46.8       1.095
  jd40                 JUNCTION     2.279    4.468     0  05:00        21.6        48.8       0.390
  jd41                 JUNCTION     1.602    5.386     0  05:00        15.1        57.1       3.845
  jd42                 JUNCTION     2.092    2.295     0  05:00        19.8        21.7       0.315
  jd43                 JUNCTION     2.362    4.276     0  05:00        22.5        40.1       0.474
  jd44                 JUNCTION     3.157    5.674     0  05:00        29.9        63.6       0.344
  jd45                 JUNCTION     1.272    3.497     0  05:00          12        41.7       0.780
  jd46                 JUNCTION     0.581    0.581     0  05:00        5.49        5.49       0.906
  jd47                 JUNCTION     1.886    1.886     0  05:00        17.9        17.9       0.085
  jd48                 JUNCTION     0.523    0.523     0  05:00        5.02        5.02       0.143
  jd49                 JUNCTION     2.553    2.553     0  05:00        24.1        24.1       0.250
  jd50                 JUNCTION     2.654    5.610     0  05:00        25.2        63.8       0.679
  jd51                 JUNCTION     0.556    2.558     0  05:00        5.28        24.3       5.974
  jd52                 JUNCTION     1.131    4.138     0  04:25        10.7        34.3       0.438
  jd53                 JUNCTION     0.628    2.679     0  04:22        5.93        28.6       0.217
  jd54                 JUNCTION     0.339    1.686     0  05:00        3.21          16       0.282
  jd55                 JUNCTION     0.618    2.250     0  05:00        5.85          20       4.145
  jd56                 JUNCTION     0.375    1.099     0  05:00        3.56        10.4       0.217
  jd59                 JUNCTION     0.373    1.849     0  05:00        3.53        17.1       4.734
  jd60                 JUNCTION     0.667    1.415     0  05:00        6.32        13.5       0.957
  jd61                 JUNCTION     0.748    0.841     0  05:00        7.13        8.03       0.163
  jd62                 JUNCTION     0.301    0.301     0  05:00         2.9         2.9       0.056
  jd63                 JUNCTION     0.414    0.414     0  05:00        3.92        3.92       0.099
  jd64                 JUNCTION     0.348    0.860     0  05:00        3.29        8.15       4.793
  jd65                 JUNCTION     5.916    5.916     0  05:00          56          56       0.186
  jd66                 JUNCTION     0.781    2.267     0  05:00        7.49        21.7       1.486
  jd69                 JUNCTION     1.446    1.486     0  05:00        13.9        14.3       0.207
  jd79                 JUNCTION     1.406    2.322     0  05:00        13.3        23.5       0.741
  jd80                 JUNCTION     1.562    2.169     0  05:00        14.8        19.9       0.761
  jd81                 JUNCTION     1.186    1.186     0  05:00        11.2        11.2       0.056
  jd83                 JUNCTION     1.238    1.504     0  05:00        11.8          15       0.569
  jd84                 JUNCTION     1.573    1.573     0  05:00        15.1        15.1       0.174
  jd85                 JUNCTION     0.357    0.585     0  05:00         3.4        5.59       1.527
  jd87                 JUNCTION     0.293    0.706     0  05:00        2.78        6.71       1.101
  jd89                 JUNCTION     0.341    0.341     0  05:00        3.23        3.23       0.219
  jd90                 JUNCTION     0.348    0.348     0  05:00         3.3         3.3       0.140
  jd92                 JUNCTION     0.293    0.293     0  05:00        2.77        2.77       0.108
  jd93                 JUNCTION     0.629    1.361     0  05:00        5.95        12.9       0.303
  jd94                 JUNCTION     0.040    0.743     0  04:36       0.381        6.92       0.251
  jd95                 JUNCTION     0.076    0.694     0  04:36       0.721        6.57       0.348
  jd96                 JUNCTION     0.571    0.761     0  05:00        5.52        7.32       1.303
  jd97                 JUNCTION     0.616    0.616     0  05:00        5.85        5.85       0.080
  jd98                 JUNCTION     0.344    0.344     0  05:00        3.26        3.26       0.130
  jd99                 JUNCTION     0.165    0.417     0  05:00        1.58        4.62       1.226
  jd101                JUNCTION     0.450    0.899     0  05:00        4.28         8.5       0.083
  jd102                JUNCTION     0.448    0.448     0  05:00        4.23        4.23       0.213
  jd103                JUNCTION     0.309    0.309     0  05:00        2.93        2.93       0.056
  jd106                JUNCTION     0.242    1.446     0  05:00         2.3        13.5       2.957
  jd107                JUNCTION     0.349    1.147     0  05:00        3.31        10.9       0.271
  jd108                JUNCTION     0.379    0.379     0  05:00        3.64        3.65       1.816
  jd109                JUNCTION     0.634    0.634     0  05:00        6.01        6.01       0.060
  jd110                JUNCTION     0.482    0.718     0  05:00        4.69        6.95       2.184
  jd111                JUNCTION     0.400    0.400     0  05:00        3.84        3.84       0.102
  jd112                JUNCTION     0.470    1.307     0  05:00        4.45        12.5       0.103
  jd113                JUNCTION     0.317    0.317     0  05:00        3.07        3.07       0.016
  jd114                JUNCTION     0.382    3.836     0  05:00        3.62        42.9       0.726
  jd117                JUNCTION     0.351    1.152     0  05:00        3.33          11       1.389
  jd118                JUNCTION     0.322    0.322     0  05:00        3.05        3.05       0.018
  jd120                JUNCTION     0.402    0.402     0  05:00         3.8         3.8       0.101
  jd121                JUNCTION     0.496    0.496     0  05:00        4.72        4.72       0.135
  jd122                JUNCTION     1.179    4.354     0  05:00        11.2        44.7       1.255
  jd123                JUNCTION     1.212    3.496     0  05:00        11.5        42.5       1.635
  jd124                JUNCTION     1.746    2.819     0  05:00        16.5        34.5       0.167
  jd125                JUNCTION     1.694    3.369     0  05:00          16        41.9       0.183
  jd126                JUNCTION     2.457    3.293     0  05:00        23.2          32       0.313
  jd135                JUNCTION     0.628    0.628     0  05:00        5.95        5.95       0.089
  jd136                JUNCTION     0.520    0.837     0  05:00           5        8.07       0.267
  psk1                 OUTFALL      0.000    0.629     0  05:00           0        5.96       0.000
  psk2                 OUTFALL      0.000    1.829     0  05:00           0        16.5       0.000
  psk3                 OUTFALL      0.000    2.837     0  05:00           0        25.6       0.000
  psk4                 OUTFALL      0.000    0.000     0  00:00           0           0       0.000 ltr
  psk5                 OUTFALL      0.000    0.620     0  05:00           0        6.02       0.000
  psk6                 OUTFALL      0.000    0.510     0  05:00           0        4.93       0.000
  psk7                 OUTFALL      0.000    2.197     0  05:00           0        27.1       0.000
  psk8                 OUTFALL      0.000    0.000     0  00:00           0           0       0.000 ltr
  
  
  **********************
  Node Surcharge Summary
  **********************
  
  Surcharging occurs when water rises above the top of the highest conduit.
  ---------------------------------------------------------------------
                                               Max. Height   Min. Depth
                                   Hours       Above Crown    Below Rim
  Node                 Type      Surcharged         Meters       Meters
  ---------------------------------------------------------------------
  jd2                  JUNCTION        1.67          2.200        0.000
  jd3                  JUNCTION        5.48          2.200        0.000
  jd4                  JUNCTION        4.19          2.200        0.000
  jd8                  JUNCTION        5.36          2.200        0.000
  jd9                  JUNCTION        4.47          2.200        0.000
  jd10                 JUNCTION        5.57          2.400        0.000
  jd12                 JUNCTION        5.59          2.400        0.000
  jd14                 JUNCTION        0.89          2.400        0.000
  jd17                 JUNCTION        5.40          2.200        0.000
  jd18                 JUNCTION        1.51          2.000        0.000
  jd19                 JUNCTION        2.86          2.200        0.000
  jd21                 JUNCTION        5.49          2.200        0.000
  jd22                 JUNCTION        5.45          2.400        0.000
  jd26                 JUNCTION        1.58          2.400        0.000
  jd28                 JUNCTION        5.63          2.400        0.000
  jd31                 JUNCTION        5.36          2.200        0.000
  jd32                 JUNCTION        5.57          2.200        0.000
  jd35                 JUNCTION        5.69          2.400        0.000
  jd36                 JUNCTION        1.84          2.400        0.000
  jd37                 JUNCTION        1.78          2.400        0.000
  jd39                 JUNCTION        5.49          2.000        0.000
  jd40                 JUNCTION        2.64          2.200        0.000
  jd41                 JUNCTION        5.27          1.000        0.000
  jd43                 JUNCTION        2.35          2.200        0.000
  jd44                 JUNCTION        2.47          2.000        0.000
  jd45                 JUNCTION        5.51          2.000        0.000
  jd50                 JUNCTION        5.64          2.200        0.000
  jd51                 JUNCTION        5.24          1.350        0.000
  jd52                 JUNCTION        1.68          1.500        0.000
  jd53                 JUNCTION        1.80          1.800        0.000
  jd55                 JUNCTION        2.87          1.500        0.000
  jd59                 JUNCTION        5.20          1.500        0.000
  jd60                 JUNCTION        5.61          2.400        0.000
  jd64                 JUNCTION        5.21          1.800        0.000
  jd65                 JUNCTION        4.61          2.400        0.000
  jd66                 JUNCTION        5.55          2.200        0.000
  jd79                 JUNCTION        5.61          2.400        0.000
  jd80                 JUNCTION        5.55          2.400        0.000
  jd83                 JUNCTION        5.74          2.400        0.000
  jd85                 JUNCTION        5.58          2.400        0.000
  jd87                 JUNCTION        5.58          2.400        0.000
  jd93                 JUNCTION        1.87          2.200        0.000
  jd94                 JUNCTION        1.14          2.200        0.000
  jd95                 JUNCTION        0.65          2.200        0.000
  jd96                 JUNCTION        5.65          2.200        0.000
  jd97                 JUNCTION        0.59          2.200        0.000
  jd99                 JUNCTION        5.55          2.400        0.000
  jd106                JUNCTION        5.38          2.000        0.000
  jd108                JUNCTION        5.61          0.874        1.126
  jd110                JUNCTION        5.59          2.000        0.000
  jd114                JUNCTION        5.53          2.000        0.000
  jd117                JUNCTION        5.49          2.200        0.000
  jd122                JUNCTION        5.51          2.200        0.000
  jd123                JUNCTION        5.47          2.200        0.000
  jd124                JUNCTION        5.77          2.400        0.000
  jd125                JUNCTION        3.43          2.200        0.000
  jd126                JUNCTION        5.71          2.400        0.000
  
  
  *********************
  Node Flooding Summary
  *********************
  
  Flooding refers to all water that overflows a node, whether it ponds or not.
  --------------------------------------------------------------------------
                                                             Total   Maximum
                                 Maximum   Time of Max       Flood    Ponded
                        Hours       Rate    Occurrence      Volume     Depth
  Node                 Flooded       CMS   days hr:min    10^6 ltr    Meters
  --------------------------------------------------------------------------
  jd2                     0.47     0.228      0  04:24       0.070     0.000
  jd3                     5.48     2.844      0  05:00      30.711     0.000
  jd4                     2.84     0.999      0  05:00       5.762     0.000
  jd8                     2.58     0.344      0  02:32       1.243     0.000
  jd9                     2.53     0.369      0  05:00       2.746     0.000
  jd10                    5.57     0.834      0  05:00       7.816     0.000
  jd12                    5.59     1.601      0  05:00      14.902     0.000
  jd14                    0.01     0.166      0  04:28       0.001     0.000
  jd17                    4.26     2.359      0  05:00      16.931     0.000
  jd18                    0.53     0.444      0  04:32       0.233     0.000
  jd19                    2.25     0.839      0  05:00       3.852     0.000
  jd21                    5.39     2.602      0  05:00      28.291     0.000
  jd22                    2.25     0.699      0  05:00       3.229     0.000
  jd26                    0.70     0.287      0  04:25       0.464     0.000
  jd28                    5.63     2.462      0  05:00      24.118     0.000
  jd31                    0.01     0.993      0  02:38       0.010     0.000
  jd32                    5.57     3.648      0  05:00      39.529     0.000
  jd35                    5.69     3.143      0  05:00      35.006     0.000
  jd36                    1.74     0.835      0  05:00       3.088     0.000
  jd37                    1.72     0.617      0  05:00       1.881     0.000
  jd39                    5.49     3.919      0  05:00      46.301     0.000
  jd40                    2.38     1.907      0  05:00      11.272     0.000
  jd41                    5.26     5.386      0  05:00      54.984     0.000
  jd43                    2.26     2.445      0  05:00      12.596     0.000
  jd44                    2.01     1.774      0  05:00       7.838     0.000
  jd45                    5.51     3.497      0  05:00      41.415     0.000
  jd50                    5.64     5.610      0  05:00      63.362     0.000
  jd51                    5.24     2.558      0  05:00      22.904     0.000
  jd52                    0.01     1.696      0  04:25       0.030     0.000
  jd53                    0.62     0.609      0  04:22       0.143     0.000
  jd55                    1.66     2.250      0  05:00       8.149     0.000
  jd59                    5.19     1.849      0  05:00      16.318     0.000
  jd60                    5.61     1.415      0  05:00      13.343     0.000
  jd64                    0.02     0.549      0  02:48       0.022     0.000
  jd65                    4.56     4.823      0  05:00      34.812     0.000
  jd66                    5.55     2.267      0  05:00      21.394     0.000
  jd79                    5.30     2.080      0  05:00      18.899     0.000
  jd80                    4.73     2.012      0  05:00      16.125     0.000
  jd83                    5.74     1.504      0  05:00      14.928     0.000
  jd85                    5.58     0.585      0  05:00       5.503     0.000
  jd87                    5.58     0.706      0  05:00       6.641     0.000
  jd93                    0.52     0.177      0  04:20       0.257     0.000
  jd94                    0.01     0.169      0  04:32       0.001     0.000
  jd95                    0.01     0.058      0  04:36       0.000     0.000
  jd96                    5.65     0.761      0  05:00       7.227     0.000
  jd97                    0.01     0.076      0  04:36       0.001     0.000
  jd99                    5.55     0.417      0  05:00       4.565     0.000
  jd106                   5.38     1.446      0  05:00      13.119     0.000
  jd110                   5.59     0.718      0  05:00       6.805     0.000
  jd114                   5.51     3.836      0  05:00      42.496     0.000
  jd117                   0.01     0.847      0  02:31       0.016     0.000
  jd122                   5.50     4.354      0  05:00      43.951     0.000
  jd123                   5.47     3.181      0  05:00      35.633     0.000
  jd124                   5.77     2.819      0  05:00      34.492     0.000
  jd125                   2.23     0.983      0  05:00       4.955     0.000
  jd126                   5.71     3.293      0  05:00      31.950     0.000
  
  
  ***********************
  Outfall Loading Summary
  ***********************
  
  -----------------------------------------------------------
                         Flow       Avg       Max       Total
                         Freq      Flow      Flow      Volume
  Outfall Node           Pcnt       CMS       CMS    10^6 ltr
  -----------------------------------------------------------
  psk1                  96.43     0.318     0.629       5.961
  psk2                  96.25     0.893     1.829      16.519
  psk3                  96.59     1.370     2.837      25.559
  psk4                   0.00     0.000     0.000       0.000
  psk5                  96.41     0.320     0.620       6.016
  psk6                  96.14     0.263     0.510       4.935
  psk7                  96.56     1.391     2.197      27.062
  psk8                   0.00     0.000     0.000       0.000
  -----------------------------------------------------------
  System                72.30     4.556     0.000      86.051
  
  
  ********************
  Link Flow Summary
  ********************
  
  -----------------------------------------------------------------------------
                                 Maximum  Time of Max   Maximum    Max/    Max/
                                  |Flow|   Occurrence   |Veloc|    Full    Full
  Link                 Type          CMS  days hr:min     m/sec    Flow   Depth
  -----------------------------------------------------------------------------
  GQ1                  CONDUIT     0.349     0  05:00      1.93    0.92    0.63
  GQ2                  CONDUIT     1.202     0  05:00      2.69    0.57    0.55
  GQ3                  CONDUIT     0.629     0  05:00      6.23    0.02    0.11
  GQ4                  CONDUIT     0.510     0  04:37      1.80    1.00    1.00
  GQ5                  CONDUIT     1.208     0  04:53      2.40    1.00    1.00
  GQ6                  CONDUIT     0.335     0  05:00      1.16    0.15    0.63
  GQ7                  CONDUIT     1.675     0  04:35      3.64    1.00    1.00
  GQ8                  CONDUIT     0.686     0  05:00      1.60    0.66    0.80
  GQ9                  CONDUIT     1.863     0  05:00      4.34    0.66    0.80
  GQ10                 CONDUIT     1.134     0  07:12      4.10    1.04    1.00
  GQ11                 CONDUIT     0.203     0  05:00      1.80    0.22    0.45
  GQ12                 CONDUIT     0.241     0  05:00      1.19    0.26    0.67
  GQ13                 CONDUIT     0.155     0  05:00      0.51    0.07    0.59
  GQ14                 CONDUIT     0.079     0  05:00      1.04    0.11    0.21
  GQ15                 CONDUIT     0.189     0  05:00      4.32    0.76    0.59
  GQ16                 CONDUIT     1.647     0  05:00      4.03    0.80    0.52
  GQ17                 CONDUIT     0.379     0  05:00      1.79    0.12    0.44
  GQ18                 CONDUIT     1.078     0  05:00      2.50    4.86    0.82
  GQ19                 CONDUIT     0.509     0  05:00      2.16    0.06    0.34
  GQ20                 CONDUIT     0.112     0  05:00      0.47    0.06    0.58
  GQ21                 CONDUIT     0.411     0  05:00      1.46    0.13    0.62
  GQ22                 CONDUIT     0.416     0  05:00      1.76    0.13    0.34
  GQ23                 CONDUIT     0.833     0  05:00      2.27    0.41    0.47
  GQ24                 CONDUIT     1.274     0  05:00      2.91    0.63    0.81
  GQ25                 CONDUIT     0.763     0  05:00      3.86    0.86    0.66
  GQ26                 CONDUIT     0.537     0  05:00      2.64    0.63    0.71
  GQ27                 CONDUIT     0.804     0  05:00      2.96    0.81    0.92
  GQ28                 CONDUIT     0.274     0  05:00      0.73    0.29    0.70
  GQ29                 CONDUIT     1.096     0  05:00      2.18    0.51    1.00
  GQ30                 CONDUIT     0.824     0  04:33      2.91    1.00    1.00
  GQ31                 CONDUIT     0.530     0  05:00      2.02    0.71    0.87
  GQ32                 CONDUIT     0.677     0  05:00      2.96    1.09    0.84
  GQ33                 CONDUIT     1.434     0  04:43      5.07    1.00    1.00
  GQ34                 CONDUIT     0.412     0  05:00      1.71    0.65    0.79
  GQ35                 CONDUIT     0.645     0  04:18      2.28    1.20    1.00
  GQ36                 CONDUIT     0.953     0  04:19      3.37    1.18    1.00
  GQ37                 CONDUIT     0.409     0  05:00      1.62    0.59    0.84
  GQ38                 CONDUIT     0.185     0  05:00      0.88    0.26    0.70
  GQ39                 CONDUIT     0.782     0  04:36      2.76    1.00    1.00
  GQ40                 CONDUIT     0.550     0  05:00      2.43    0.68    0.84
  GQ41                 CONDUIT     1.221     0  05:00      1.64    0.57    0.90
  GQ42                 CONDUIT     1.359     0  04:45      2.70    1.00    1.00
  GQ43                 CONDUIT     2.310     0  04:19      4.70    1.03    1.00
  GQ44                 CONDUIT     0.946     0  04:44      1.88    1.00    1.00
  GQ45                 CONDUIT     0.847     0  05:00      2.25    0.34    0.70
  GQ46                 CONDUIT     1.068     0  04:37      2.12    1.00    1.00
  GQ47                 CONDUIT     0.176     0  05:00      0.92    0.17    0.64
  GQ48                 CONDUIT     0.175     0  05:00      0.92    0.17    0.64
  GQ49                 CONDUIT     0.695     0  05:00      3.43    0.26    0.67
  GQ50                 CONDUIT     0.200     0  05:00      1.05    0.26    0.67
  GQ51                 CONDUIT     0.916     0  05:00      3.30    1.40    0.95
  GQ52                 CONDUIT     0.575     0  05:00      1.29    0.77    0.83
  GQ53                 CONDUIT     2.225     0  04:35      2.83    1.00    1.00
  GQ54                 CONDUIT     0.428     0  05:00      2.00    0.37    0.71
  GQ55                 CONDUIT     0.320     0  05:00      1.62    0.22    0.66
  GQ56                 CONDUIT     2.001     0  04:12      4.22    1.09    1.00
  GQ57                 CONDUIT     0.609     0  05:00      1.57    0.40    0.72
  GQ58                 CONDUIT     1.269     0  05:00      3.28    0.40    0.72
  GQ59                 CONDUIT     1.203     0  04:36      2.39    1.00    1.00
  GQ60                 CONDUIT     2.024     0  04:25      1.32    0.49    1.00
  GQ61                 CONDUIT     0.275     0  05:00      0.44    0.03    0.56
  GQ62                 CONDUIT     0.574     0  05:00      0.55    0.06    0.58
  GQ63                 CONDUIT     1.312     0  05:00      1.12    0.04    0.57
  GQ64                 CONDUIT     0.093     0  05:00      1.37    0.07    0.30
  GQ65                 CONDUIT     0.040     0  05:00      0.35    0.07    0.44
  GQ66                 CONDUIT     0.164     0  05:00      0.64    0.05    0.58
  GQ67                 CONDUIT     0.860     0  05:00      0.76    0.60    1.00
  GQ68                 CONDUIT     0.847     0  05:00      1.50    0.27    0.68
  GQ69                 CONDUIT     1.486     0  05:00      3.63    0.53    0.76
  GQ70                 CONDUIT     0.510     0  05:00      8.07    0.07    0.18
  GQ71                 CONDUIT     0.620     0  05:00      5.88    0.15    0.26
  GQ72                 CONDUIT     2.197     0  05:00      5.39    0.52    0.51
  GQ73                 CONDUIT     1.829     0  05:00     13.16    0.12    0.23
  GQ74                 CONDUIT     0.335     0  05:00      1.40    0.06    0.37
  GQ75                 CONDUIT     0.412     0  05:00      0.81    0.12    0.62
  GQ76                 CONDUIT     2.837     0  05:00      6.18    0.61    0.57
  GQ77                 CONDUIT     0.000     0  00:00      0.00    0.00    0.27
  GQ78                 CONDUIT     0.916     0  05:00      3.24    1.00    1.00
  GQ79                 CONDUIT     0.242     0  05:00      1.08    0.52    0.77
  GQ80                 CONDUIT     0.608     0  04:47      2.15    1.00    1.00
  GQ81                 CONDUIT     0.605     0  02:33      2.17    3.83    1.00
  GQ82                 CONDUIT     0.570     0  05:00      2.63    0.39    0.72
  GQ83                 CONDUIT     0.615     0  05:00      2.99    0.39    0.69
  GQ84                 CONDUIT     1.305     0  05:00      4.70    1.03    0.96
  GQ85                 CONDUIT     0.267     0  05:00      0.96    0.46    0.96
  GQ86                 CONDUIT     0.168     0  05:00      0.97    0.07    0.59
  GQ87                 CONDUIT     0.060     0  05:00      0.34    0.09    0.60
  GQ88                 CONDUIT     0.413     0  05:00      1.93    0.37    0.71
  GQ89                 CONDUIT     0.341     0  05:00      1.53    0.45    0.73
  GQ90                 CONDUIT     0.348     0  05:00      1.64    0.35    0.70
  GQ91                 CONDUIT     0.292     0  05:00      1.37    0.36    0.71
  GQ92                 CONDUIT     0.703     0  04:36      1.80    1.01    1.00
  GQ93                 CONDUIT     0.745     0  04:36      1.61    0.64    1.00
  GQ94                 CONDUIT     1.200     0  05:05      2.39    1.42    1.00
  GQ95                 CONDUIT     0.190     0  05:00      0.64    0.05    0.58
  GQ96                 CONDUIT     0.619     0  04:36      1.38    1.06    1.00
  GQ97                 CONDUIT     0.344     0  05:00      2.02    0.62    0.58
  GQ98                 CONDUIT     0.252     0  05:00      1.04    0.36    0.80
  GQ99                 CONDUIT     0.623     0  05:00      0.75    0.03    0.56
  GQ100                CONDUIT     0.448     0  05:00      2.96    0.77    0.53
  GQ101                CONDUIT     0.309     0  05:00      1.55    0.23    0.66
  GQ102                CONDUIT     1.271     0  05:00      3.30    0.39    0.72
  GQ103                CONDUIT     0.500     0  05:00      1.91    0.77    0.87
  GQ104                CONDUIT     1.089     0  05:00      4.32    0.79    0.84
  GQ105                CONDUIT     1.035     0  02:31      2.06    3.29    1.00
  GQ106                CONDUIT     0.340     0  05:00      1.61    0.34    0.70
  GQ107                CONDUIT     1.114     0  04:34      3.94    1.00    1.00
  GQ108                CONDUIT     0.829     0  04:23      1.65    1.00    1.00
  GQ109                CONDUIT     0.252     0  05:00      1.39    0.34    0.70
  GQ110                CONDUIT     0.417     0  05:00      0.88    0.06    0.58
  GQ111                CONDUIT     0.375     0  05:00      1.77    0.34    0.70
  GQ112                CONDUIT     1.147     0  05:00      3.09    0.20    0.36
  GQ113                CONDUIT     0.634     0  05:00      3.97    0.48    0.55
  GQ114                CONDUIT     0.379     0  05:00      0.67    0.16    0.68
  GQ115                CONDUIT     0.164     0  05:00      0.99    0.02    0.21
  GQ116                CONDUIT     0.236     0  05:00      0.52    0.03    0.56
  GQ117                CONDUIT     0.837     0  05:00      4.50    0.52    0.40
  GQ118                CONDUIT     0.317     0  05:00      1.96    0.11    0.41
  GQ119                CONDUIT     2.302     0  04:34      4.58    1.00    1.00
  GQ120                CONDUIT     0.000     0  00:00      0.00    0.00    0.50
  GQ121                CONDUIT     1.152     0  05:00      2.29    0.81    1.00
  GQ122                CONDUIT     0.478     0  05:00      1.93    0.09    0.60
  GQ123                CONDUIT     0.322     0  05:00      1.71    0.15    0.63
  GQ124                CONDUIT     0.200     0  05:00      1.04    0.09    0.41
  GQ125                CONDUIT     0.402     0  05:00      1.80    0.45    0.74
  GQ126                CONDUIT     0.496     0  05:00      2.20    0.47    0.74
  GQ127                CONDUIT     0.824     0  04:18      1.72    1.05    1.00
  GQ128                CONDUIT     1.686     0  05:00      2.69    0.37    0.71
  GQ129                CONDUIT     1.313     0  05:00      2.61    1.00    1.00
  GQ130                CONDUIT     1.073     0  04:39      3.79    1.00    1.00
  GQ131                CONDUIT     0.836     0  05:00      2.96    0.97    1.00
  
  
  ***************************
  Flow Classification Summary
  ***************************
  
  -------------------------------------------------------------------------------------
                      Adjusted    ---------- Fraction of Time in Flow Class ---------- 
                       /Actual         Up    Down  Sub   Sup   Up    Down  Norm  Inlet 
  Conduit               Length    Dry  Dry   Dry   Crit  Crit  Crit  Crit  Ltd   Ctrl  
  -------------------------------------------------------------------------------------
  GQ1                     1.00   0.03  0.00  0.00  0.04  0.92  0.00  0.00  0.00  0.00
  GQ2                     1.00   0.03  0.00  0.00  0.06  0.91  0.00  0.00  0.87  0.00
  GQ3                     1.00   0.03  0.00  0.00  0.00  0.96  0.00  0.00  0.22  0.00
  GQ4                     1.00   0.03  0.00  0.00  0.97  0.00  0.00  0.00  0.24  0.00
  GQ5                     1.00   0.03  0.00  0.00  0.97  0.00  0.00  0.00  0.58  0.00
  GQ6                     1.00   0.03  0.00  0.00  0.97  0.00  0.00  0.00  0.87  0.00
  GQ7                     1.00   0.03  0.00  0.00  0.59  0.38  0.00  0.00  0.18  0.00
  GQ8                     1.00   0.03  0.00  0.00  0.97  0.00  0.00  0.00  0.87  0.00
  GQ9                     1.00   0.03  0.00  0.00  0.47  0.50  0.00  0.00  0.87  0.00
  GQ10                    1.00   0.03  0.00  0.00  0.81  0.15  0.00  0.00  0.29  0.00
  GQ11                    1.00   0.03  0.00  0.00  0.20  0.77  0.00  0.00  0.82  0.00
  GQ12                    1.00   0.03  0.00  0.00  0.96  0.00  0.00  0.00  0.87  0.00
  GQ13                    1.00   0.03  0.00  0.00  0.96  0.00  0.00  0.00  0.87  0.00
  GQ14                    1.00   0.03  0.00  0.00  0.97  0.00  0.00  0.00  0.00  0.00
  GQ15                    1.00   0.03  0.00  0.00  0.00  0.97  0.00  0.00  0.02  0.00
  GQ16                    1.00   0.03  0.00  0.00  0.01  0.96  0.00  0.00  0.00  0.00
  GQ17                    1.00   0.03  0.00  0.00  0.52  0.44  0.00  0.00  0.87  0.00
  GQ18                    1.00   0.03  0.00  0.00  0.85  0.11  0.00  0.00  0.16  0.00
  GQ19                    1.00   0.03  0.00  0.00  0.38  0.59  0.00  0.00  0.87  0.00
  GQ20                    1.00   0.03  0.00  0.00  0.97  0.00  0.00  0.00  0.87  0.00
  GQ21                    1.00   0.03  0.00  0.00  0.65  0.32  0.00  0.00  0.87  0.00
  GQ22                    1.00   0.03  0.00  0.00  0.03  0.93  0.00  0.00  0.87  0.00
  GQ23                    1.00   0.03  0.00  0.00  0.03  0.93  0.00  0.00  0.37  0.00
  GQ24                    1.00   0.03  0.00  0.00  0.77  0.20  0.00  0.00  0.72  0.00
  GQ25                    1.00   0.03  0.00  0.00  0.00  0.97  0.00  0.00  0.01  0.00
  GQ26                    1.00   0.03  0.00  0.00  0.01  0.96  0.00  0.00  0.73  0.00
  GQ27                    1.00   0.03  0.00  0.00  0.48  0.49  0.00  0.00  0.58  0.00
  GQ28                    1.00   0.03  0.00  0.00  0.97  0.00  0.00  0.00  0.69  0.00
  GQ29                    1.00   0.03  0.00  0.00  0.97  0.00  0.00  0.00  0.19  0.00
  GQ30                    1.00   0.03  0.00  0.00  0.93  0.04  0.00  0.00  0.17  0.00
  GQ31                    1.00   0.03  0.00  0.00  0.97  0.00  0.00  0.00  0.64  0.00
  GQ32                    1.00   0.03  0.00  0.00  0.02  0.95  0.00  0.00  0.01  0.00
  GQ33                    1.00   0.03  0.00  0.00  0.54  0.43  0.00  0.00  0.55  0.00
  GQ34                    1.00   0.03  0.00  0.00  0.94  0.03  0.00  0.00  0.87  0.00
  GQ35                    1.00   0.03  0.00  0.00  0.43  0.53  0.00  0.00  0.36  0.00
  GQ36                    1.00   0.03  0.00  0.00  0.39  0.58  0.00  0.00  0.47  0.00
  GQ37                    1.00   0.03  0.00  0.00  0.97  0.00  0.00  0.00  0.63  0.00
  GQ38                    1.00   0.03  0.00  0.00  0.96  0.00  0.00  0.00  0.65  0.00
  GQ39                    1.00   0.03  0.00  0.00  0.92  0.05  0.00  0.00  0.61  0.00
  GQ40                    1.00   0.03  0.00  0.00  0.37  0.60  0.00  0.00  0.77  0.00
  GQ41                    1.00   0.03  0.00  0.00  0.97  0.00  0.00  0.00  0.54  0.00
  GQ42                    1.00   0.03  0.00  0.00  0.97  0.00  0.00  0.00  0.42  0.00
  GQ43                    1.00   0.03  0.00  0.00  0.42  0.55  0.00  0.00  0.61  0.00
  GQ44                    1.00   0.03  0.00  0.00  0.97  0.00  0.00  0.00  0.25  0.00
  GQ45                    1.00   0.03  0.00  0.00  0.71  0.26  0.00  0.00  0.87  0.00
  GQ46                    1.00   0.03  0.00  0.00  0.86  0.11  0.00  0.00  0.23  0.00
  GQ47                    1.00   0.03  0.00  0.00  0.97  0.00  0.00  0.00  0.87  0.00
  GQ48                    1.00   0.03  0.00  0.00  0.97  0.00  0.00  0.00  0.87  0.00
  GQ49                    1.00   0.03  0.00  0.00  0.47  0.50  0.00  0.00  0.87  0.00
  GQ50                    1.00   0.03  0.00  0.00  0.97  0.00  0.00  0.00  0.87  0.00
  GQ51                    1.00   0.03  0.00  0.00  0.09  0.88  0.00  0.00  0.37  0.00
  GQ52                    1.00   0.03  0.00  0.00  0.97  0.00  0.00  0.00  0.74  0.00
  GQ53                    1.00   0.03  0.00  0.00  0.97  0.00  0.00  0.00  0.45  0.00
  GQ54                    1.00   0.03  0.00  0.00  0.88  0.09  0.00  0.00  0.87  0.00
  GQ55                    1.00   0.03  0.00  0.00  0.97  0.00  0.00  0.00  0.87  0.00
  GQ56                    1.00   0.03  0.00  0.00  0.50  0.47  0.00  0.00  0.33  0.00
  GQ57                    1.00   0.03  0.00  0.00  0.97  0.00  0.00  0.00  0.87  0.00
  GQ58                    1.00   0.03  0.00  0.00  0.57  0.40  0.00  0.00  0.87  0.00
  GQ59                    1.00   0.03  0.00  0.00  0.97  0.00  0.00  0.00  0.45  0.00
  GQ60                    1.00   0.03  0.00  0.00  0.97  0.00  0.00  0.00  0.21  0.00
  GQ61                    1.00   0.03  0.00  0.00  0.97  0.00  0.00  0.00  0.87  0.00
  GQ62                    1.00   0.03  0.00  0.00  0.97  0.00  0.00  0.00  0.87  0.00
  GQ63                    1.00   0.03  0.00  0.00  0.96  0.01  0.00  0.00  0.87  0.00
  GQ64                    1.00   0.03  0.00  0.00  0.15  0.82  0.00  0.00  0.87  0.00
  GQ65                    1.00   0.03  0.00  0.00  0.97  0.00  0.00  0.00  0.87  0.00
  GQ66                    1.00   0.03  0.00  0.00  0.96  0.01  0.00  0.00  0.87  0.00
  GQ67                    1.00   0.03  0.00  0.00  0.97  0.00  0.00  0.00  0.18  0.00
  GQ68                    1.00   0.03  0.00  0.00  0.97  0.00  0.00  0.00  0.87  0.00
  GQ69                    1.00   0.03  0.00  0.00  0.46  0.51  0.00  0.00  0.87  0.00
  GQ70                    1.00   0.03  0.00  0.00  0.01  0.96  0.00  0.00  0.05  0.00
  GQ71                    1.00   0.03  0.00  0.00  0.00  0.96  0.00  0.00  0.03  0.00
  GQ72                    1.00   0.03  0.00  0.00  0.00  0.97  0.00  0.00  0.33  0.00
  GQ73                    1.00   0.04  0.00  0.00  0.01  0.96  0.00  0.00  0.07  0.00
  GQ74                    1.00   0.03  0.00  0.00  0.87  0.09  0.00  0.00  0.87  0.00
  GQ75                    1.00   0.03  0.00  0.00  0.96  0.00  0.00  0.00  0.87  0.00
  GQ76                    1.00   0.03  0.00  0.00  0.00  0.97  0.00  0.00  0.33  0.00
  GQ77                    1.00   0.03  0.97  0.00  0.00  0.00  0.00  0.00  0.00  0.00
  GQ78                    1.00   0.03  0.00  0.00  0.83  0.14  0.00  0.00  0.53  0.00
  GQ79                    1.00   0.03  0.00  0.00  0.97  0.00  0.00  0.00  0.17  0.00
  GQ80                    1.00   0.03  0.00  0.00  0.97  0.00  0.00  0.00  0.31  0.00
  GQ81                    1.00   0.03  0.00  0.00  0.97  0.00  0.00  0.00  0.00  0.00
  GQ82                    1.00   0.03  0.00  0.00  0.53  0.44  0.00  0.00  0.87  0.00
  GQ83                    1.00   0.03  0.00  0.00  0.00  0.97  0.00  0.00  0.87  0.00
  GQ84                    1.00   0.03  0.00  0.00  0.06  0.91  0.00  0.00  0.79  0.00
  GQ85                    1.00   0.03  0.00  0.00  0.97  0.00  0.00  0.00  0.44  0.00
  GQ86                    1.00   0.03  0.00  0.00  0.97  0.00  0.00  0.00  0.87  0.00
  GQ87                    1.00   0.03  0.00  0.00  0.97  0.00  0.00  0.00  0.87  0.00
  GQ88                    1.00   0.03  0.00  0.00  0.97  0.00  0.00  0.00  0.87  0.00
  GQ89                    1.00   0.03  0.00  0.00  0.97  0.00  0.00  0.00  0.87  0.00
  GQ90                    1.00   0.03  0.00  0.00  0.94  0.03  0.00  0.00  0.87  0.00
  GQ91                    1.00   0.03  0.00  0.00  0.96  0.00  0.00  0.00  0.87  0.00
  GQ92                    1.00   0.03  0.00  0.00  0.88  0.09  0.00  0.00  0.08  0.00
  GQ93                    1.00   0.03  0.00  0.00  0.97  0.00  0.00  0.00  0.65  0.00
  GQ94                    1.00   0.03  0.00  0.00  0.64  0.33  0.00  0.00  0.03  0.00
  GQ95                    1.00   0.03  0.00  0.00  0.97  0.00  0.00  0.00  0.87  0.00
  GQ96                    1.00   0.03  0.00  0.00  0.97  0.00  0.00  0.00  0.37  0.00
  GQ97                    1.00   0.03  0.00  0.00  0.01  0.96  0.00  0.00  0.46  0.00
  GQ98                    1.00   0.03  0.00  0.00  0.97  0.00  0.00  0.00  0.52  0.00
  GQ99                    1.00   0.03  0.00  0.00  0.96  0.01  0.00  0.00  0.87  0.00
  GQ100                   1.00   0.03  0.00  0.00  0.01  0.96  0.00  0.00  0.00  0.00
  GQ101                   1.00   0.03  0.00  0.00  0.96  0.01  0.00  0.00  0.87  0.00
  GQ102                   1.00   0.03  0.00  0.00  0.53  0.44  0.00  0.00  0.87  0.00
  GQ103                   1.00   0.03  0.00  0.00  0.97  0.00  0.00  0.00  0.65  0.00
  GQ104                   1.00   0.03  0.00  0.00  0.40  0.56  0.00  0.00  0.87  0.00
  GQ105                   1.00   0.03  0.00  0.00  0.97  0.00  0.00  0.00  0.17  0.00
  GQ106                   1.00   0.03  0.00  0.00  0.96  0.01  0.00  0.00  0.87  0.00
  GQ107                   1.00   0.03  0.00  0.00  0.67  0.29  0.00  0.00  0.64  0.00
  GQ108                   1.00   0.03  0.00  0.00  0.97  0.00  0.00  0.00  0.19  0.00
  GQ109                   1.00   0.03  0.00  0.00  0.88  0.09  0.00  0.00  0.84  0.00
  GQ110                   1.00   0.03  0.00  0.00  0.96  0.01  0.00  0.00  0.87  0.00
  GQ111                   1.00   0.03  0.00  0.00  0.96  0.01  0.00  0.00  0.87  0.00
  GQ112                   1.00   0.03  0.00  0.00  0.01  0.96  0.00  0.00  0.85  0.00
  GQ113                   1.00   0.03  0.00  0.00  0.00  0.97  0.00  0.00  0.82  0.00
  GQ114                   1.00   0.03  0.00  0.00  0.97  0.00  0.00  0.00  0.17  0.00
  GQ115                   1.00   0.03  0.00  0.00  0.95  0.02  0.00  0.00  0.87  0.00
  GQ116                   1.00   0.03  0.00  0.00  0.97  0.00  0.00  0.00  0.87  0.00
  GQ117                   1.00   0.03  0.00  0.00  0.00  0.97  0.00  0.00  0.00  0.00
  GQ118                   1.00   0.03  0.00  0.00  0.26  0.71  0.00  0.00  0.87  0.00
  GQ119                   1.00   0.03  0.00  0.00  0.72  0.25  0.00  0.00  0.52  0.00
  GQ120                   1.00   0.03  0.07  0.00  0.90  0.00  0.00  0.00  0.00  0.00
  GQ121                   1.00   0.03  0.00  0.00  0.97  0.00  0.00  0.00  0.18  0.00
  GQ122                   1.00   0.03  0.00  0.00  0.91  0.05  0.00  0.00  0.87  0.00
  GQ123                   1.00   0.03  0.00  0.00  0.90  0.06  0.00  0.00  0.87  0.00
  GQ124                   1.00   0.03  0.00  0.00  0.96  0.01  0.00  0.00  0.87  0.00
  GQ125                   1.00   0.03  0.00  0.00  0.96  0.01  0.00  0.00  0.87  0.00
  GQ126                   1.00   0.03  0.00  0.00  0.81  0.16  0.00  0.00  0.87  0.00
  GQ127                   1.00   0.03  0.00  0.00  0.97  0.00  0.00  0.00  0.48  0.00
  GQ128                   1.00   0.03  0.00  0.00  0.44  0.53  0.00  0.00  0.69  0.00
  GQ129                   1.00   0.03  0.00  0.00  0.97  0.00  0.00  0.00  0.27  0.00
  GQ130                   1.00   0.03  0.00  0.00  0.85  0.12  0.00  0.00  0.28  0.00
  GQ131                   1.00   0.03  0.00  0.00  0.77  0.19  0.00  0.00  0.59  0.00
  
  
  *************************
  Conduit Surcharge Summary
  *************************
  
  ----------------------------------------------------------------------------
                                                           Hours        Hours 
                         --------- Hours Full --------   Above Full   Capacity
  Conduit                Both Ends  Upstream  Dnstream   Normal Flow   Limited
  ----------------------------------------------------------------------------
  GQ4                         4.51      4.51      5.52      0.01         0.01
  GQ5                         1.67      1.67      5.48      0.01         0.01
  GQ6                         0.01      0.01      1.67      0.01         0.01
  GQ7                         2.81      2.81      3.43      0.01         0.01
  GQ8                         0.01      0.01      2.81      0.01         0.01
  GQ9                         0.01      0.01      5.64      0.01         0.01
  GQ10                        4.61      4.61      5.67      0.06         0.01
  GQ12                        0.01      0.01      5.44      0.01         0.01
  GQ13                        0.01      0.01      4.19      0.01         0.01
  GQ18                        0.01      0.01      5.36      5.48         0.01
  GQ20                        0.01      0.01      1.51      0.01         0.01
  GQ21                        0.01      0.01      1.51      0.01         0.01
  GQ24                        0.01      0.01      5.57      0.01         0.01
  GQ27                        0.01      0.01      5.45      0.01         0.01
  GQ28                        0.01      0.01      5.49      0.01         0.01
  GQ29                        5.36      5.36      5.49      0.01         0.01
  GQ30                        5.45      5.45      5.53      0.01         0.01
  GQ31                        0.01      0.01      5.69      0.01         0.01
  GQ32                        0.01      1.84      0.01      1.76         0.01
  GQ33                        1.84      1.84      5.69      0.01         0.01
  GQ34                        0.01      0.01      1.84      0.01         0.01
  GQ35                        1.78      1.78      1.84      0.13         0.01
  GQ36                        1.78      1.78      1.81      1.88         1.78
  GQ37                        0.01      0.01      5.63      0.01         0.01
  GQ38                        0.01      0.01      5.63      0.01         0.01
  GQ39                        1.58      1.58      5.44      0.01         0.01
  GQ40                        0.01      0.01      1.58      0.01         0.01
  GQ41                        0.01      0.01      5.49      0.01         0.01
  GQ42                        2.64      2.64      5.52      0.01         0.01
  GQ43                        1.93      1.93      2.64      0.07         0.01
  GQ44                        4.47      4.47      5.36      0.01         0.01
  GQ45                        0.01      0.01      2.86      0.01         0.01
  GQ46                        2.86      2.86      4.47      0.01         0.01
  GQ47                        0.01      0.01      5.57      0.01         0.01
  GQ48                        0.01      0.01      5.59      0.01         0.01
  GQ49                        0.01      0.01      5.59      0.01         0.01
  GQ50                        0.01      0.01      0.89      0.01         0.01
  GQ51                        0.01      0.89      0.01      1.12         0.01
  GQ52                        0.01      0.01      5.36      0.01         0.01
  GQ53                        2.47      2.47      5.51      0.01         0.01
  GQ54                        0.01      0.01      5.61      0.01         0.01
  GQ55                        0.01      0.01      5.61      0.01         0.01
  GQ56                        2.33      2.35      2.81      0.58         0.23
  GQ57                        0.01      0.01      2.35      0.01         0.01
  GQ58                        0.01      0.01      5.45      0.01         0.01
  GQ59                        2.64      2.64      5.45      0.01         0.01
  GQ60                        1.68      1.68      2.87      0.01         0.01
  GQ61                        0.01      0.01      5.20      0.01         0.01
  GQ62                        0.01      0.01      5.24      0.01         0.01
  GQ63                        0.01      0.01      5.27      0.01         0.01
  GQ66                        0.01      0.01      5.29      0.01         0.01
  GQ67                        5.21      5.21      5.25      0.01         0.01
  GQ68                        0.01      0.01      5.38      0.01         0.01
  GQ69                        0.01      0.01      5.55      0.01         0.01
  GQ75                        0.01      0.01      5.38      0.01         0.01
  GQ78                        1.91      1.91      5.61      0.01         0.01
  GQ79                        0.01      0.01      5.61      0.01         0.01
  GQ80                        1.91      1.91      5.55      0.01         0.01
  GQ81                        5.44      5.55      5.44      5.58         1.18
  GQ82                        0.01      0.01      5.44      0.01         0.01
  GQ84                        0.01      0.01      2.80      0.59         0.01
  GQ85                        0.01      0.01      5.74      0.01         0.01
  GQ86                        0.01      0.01      5.58      0.01         0.01
  GQ87                        0.01      0.01      5.58      0.01         0.01
  GQ88                        0.01      0.01      5.58      0.01         0.01
  GQ89                        0.01      0.01      5.44      0.01         0.01
  GQ90                        0.01      0.01      5.37      0.01         0.01
  GQ91                        0.01      0.01      5.48      0.01         0.01
  GQ92                        0.65      0.65      1.14      0.01         0.01
  GQ93                        1.14      1.14      1.87      0.01         0.01
  GQ94                        1.87      1.87      1.93      1.88         1.80
  GQ95                        0.01      0.01      5.65      0.01         0.01
  GQ96                        0.59      0.59      0.65      0.55         0.42
  GQ98                        0.01      0.01      5.55      0.01         0.01
  GQ99                        0.01      0.01      5.27      0.01         0.01
  GQ101                       0.01      0.01      5.49      0.01         0.01
  GQ102                       0.01      0.01      5.51      0.01         0.01
  GQ103                       0.01      0.01      5.55      0.01         0.01
  GQ104                       0.01      0.01      5.55      0.01         0.01
  GQ105                       5.47      5.47      5.51      5.06         0.01
  GQ106                       0.01      0.01      5.49      0.01         0.01
  GQ107                       1.58      1.58      5.49      0.01         0.01
  GQ108                       5.40      5.40      5.47      0.01         0.01
  GQ109                       0.01      0.01      1.58      0.01         0.01
  GQ110                       0.01      0.01      5.38      0.01         0.01
  GQ111                       0.01      0.01      5.49      0.01         0.01
  GQ114                       0.01      0.01      5.61      0.01         0.01
  GQ116                       0.01      0.01      5.59      0.01         0.01
  GQ119                       2.02      2.02      5.56      0.01         0.01
  GQ120                       0.01      0.01      5.53      0.01         0.01
  GQ121                       5.49      5.49      5.56      0.01         0.01
  GQ122                       0.01      0.01      5.49      0.01         0.01
  GQ123                       0.01      0.01      5.49      0.01         0.01
  GQ125                       0.01      0.01      5.48      0.01         0.01
  GQ126                       0.01      0.01      5.49      0.01         0.01
  GQ127                       1.93      1.93      2.02      0.12         0.07
  GQ128                       0.01      0.01      1.80      0.01         0.01
  GQ129                       3.43      3.43      5.57      0.01         0.01
  GQ130                       3.89      3.89      5.77      0.01         0.01
  GQ131                       0.89      0.89      5.71      0.01         0.01
  

  Analysis begun on:  Sat Mar 25 16:17:21 2023
  Analysis ended on:  Sat Mar 25 16:17:23 2023
  Total elapsed time: 00:00:02