
  OWA STORM WATER MANAGEMENT MODEL - VERSION v5.1.14 (OWA 2022-07-31)
  --------------------------------------------------------------

  INP file created by DSDAConvertToSwmmTools 
  version 0.0.1 EcoVista 
  Title/Notes: 
  
  
  *********************************************************
  NOTE: The summary statistics displayed in this report are
  based on results found at every computational time step,  
  not just on results from each reporting time step.
  *********************************************************
  
  ****************
  Analysis Options
  ****************
  Flow Units ............... CMS
  Process Models:
    Rainfall/Runoff ........ YES
    RDII ................... NO
    Snowmelt ............... NO
    Groundwater ............ NO
    Flow Routing ........... YES
    Ponding Allowed ........ NO
    Water Quality .......... NO
  Infiltration Method ...... GREEN_AMPT
  Flow Routing Method ...... DYNWAVE
  Surcharge Method ......... EXTRAN
  Starting Date ............ 07/15/2020 00:00:00
  Ending Date .............. 07/15/2020 10:00:00
  Antecedent Dry Days ...... 0.0
  Report Time Step ......... 00:30:00
  Wet Time Step ............ 00:05:00
  Dry Time Step ............ 01:00:00
  Routing Time Step ........ 30.00 sec
  Variable Time Step ....... YES
  Maximum Trials ........... 8
  Number of Threads ........ 1
  Head Tolerance ........... 0.001500 m
  
  
  **************************        Volume         Depth
  Runoff Quantity Continuity     hectare-m            mm
  **************************     ---------       -------
  Total Precipitation ......       182.640        45.700
  Evaporation Loss .........         3.287         0.822
  Infiltration Loss ........        48.810        12.213
  Surface Runoff ...........       121.518        30.406
  Final Storage ............         9.334         2.336
  Continuity Error (%) .....        -0.169
  
  
  **************************        Volume        Volume
  Flow Routing Continuity        hectare-m      10^6 ltr
  **************************     ---------     ---------
  Dry Weather Inflow .......         0.000         0.000
  Wet Weather Inflow .......       121.254      1212.557
  Groundwater Inflow .......         0.000         0.000
  RDII Inflow ..............         0.000         0.000
  External Inflow ..........         0.000         0.000
  External Outflow .........        10.702       107.024
  Flooding Loss ............       108.758      1087.594
  Evaporation Loss .........         0.000         0.000
  Exfiltration Loss ........         0.000         0.000
  Initial Stored Volume ....         0.000         0.000
  Final Stored Volume ......         1.610        16.105
  Continuity Error (%) .....         0.151
  
  
  *************************
  Highest Continuity Errors
  *************************
  Node jd51 (4.50%)
  Node jd64 (3.63%)
  Node jd59 (3.57%)
  Node jd31 (3.34%)
  Node jd55 (3.32%)
  
  
  ***************************
  Time-Step Critical Elements
  ***************************
  Link GQ73 (93.67%)
  
  
  ********************************
  Highest Flow Instability Indexes
  ********************************
  Link GQ67 (27)
  Link GQ29 (14)
  Link GQ114 (7)
  Link GQ46 (6)
  Link GQ121 (4)
  
  
  *************************
  Routing Time Step Summary
  *************************
  Minimum Time Step           :     1.55 sec
  Average Time Step           :     7.73 sec
  Maximum Time Step           :    30.00 sec
  Percent in Steady State     :    -0.00
  Average Iterations per Step :     4.66
  Percent Not Converging      :    20.33
  
  
  ***************************
  Subcatchment Runoff Summary
  ***************************
  
  ------------------------------------------------------------------------------------------------------------------------------
                            Total      Total      Total      Total     Imperv       Perv      Total       Total     Peak  Runoff
                           Precip      Runon       Evap      Infil     Runoff     Runoff     Runoff      Runoff   Runoff   Coeff
  Subcatchment                 mm         mm         mm         mm         mm         mm         mm    10^6 ltr      CMS
  ------------------------------------------------------------------------------------------------------------------------------
  1                         45.70       0.00       0.49      25.60      18.40       0.00      18.40        7.28     0.75   0.403
  2                         45.70       0.00       0.88       9.73      32.41       0.00      32.41       29.31     3.05   0.709
  3                         45.70       0.00       0.92       8.34      34.01       0.00      34.01       13.61     1.41   0.744
  4                         45.70       0.00       0.95       7.16      35.31       0.00      35.31        2.96     0.30   0.773
  5                         45.70       0.00       0.84      11.64      31.20       0.00      31.20        3.86     0.40   0.683
  6                         45.70       0.00       0.80      13.10      29.94       0.00      29.94        2.78     0.28   0.655
  7                         45.70       0.00       0.84      11.69      30.78       0.00      30.78       13.42     1.39   0.673
  8                         45.70       0.00       1.06       2.56      39.21       0.00      39.21        5.46     0.56   0.858
  9                         45.70       0.00       1.09       1.28      40.47       0.00      40.47        4.74     0.49   0.886
  10                        45.70       0.00       0.94       7.43      34.87       0.00      34.87        7.86     0.81   0.763
  11                        45.70       0.00       1.02       4.37      37.51       0.00      37.51       18.60     1.93   0.821
  12                        45.70       0.00       0.80      13.14      29.66       0.00      29.66       14.47     1.49   0.649
  13                        45.70       0.00       1.00       4.93      37.03       0.00      37.03       16.75     1.73   0.810
  14                        45.70       0.00       1.00       4.98      37.15       0.00      37.15        7.01     0.72   0.813
  15                        45.70       0.00       0.93       8.03      34.28       0.00      34.28       11.59     1.20   0.750
  16                        45.70       0.00       0.96       6.64      35.49       0.00      35.49       10.48     1.08   0.777
  17                        45.70       0.00       0.90       9.12      33.28       0.00      33.28       13.93     1.44   0.728
  18                        45.70       0.00       1.03       3.60      38.21       0.00      38.21       15.78     1.63   0.836
  19                        45.70       0.00       1.03       3.76      38.02       0.00      38.02        8.55     0.89   0.832
  20                        45.70       0.00       1.02       4.01      37.58       0.00      37.58       20.17     2.10   0.822
  21                        45.70       0.00       1.09       1.34      40.23       0.00      40.23       12.62     1.31   0.880
  22                        45.70       0.00       1.07       2.16      39.44       0.00      39.44        4.85     0.50   0.863
  23                        45.70       0.00       0.99       5.59      36.31       0.00      36.31       20.79     2.16   0.795
  24                        45.70       0.00       0.95       6.98      35.03       0.00      35.03        6.21     0.64   0.766
  25                        45.70       0.00       1.02       4.29      37.72       0.00      37.72        7.64     0.79   0.825
  26                        45.70       0.00       0.87      10.43      31.83       0.00      31.83       11.17     1.16   0.696
  27                        45.70       0.00       1.04       3.42      38.12       0.00      38.12       16.11     1.68   0.834
  28                        45.70       0.00       1.06       2.52      39.04       0.00      39.04       18.46     1.92   0.854
  29                        45.70       0.00       0.95       7.09      35.24       0.00      35.24        8.23     0.85   0.771
  30                        45.70       0.00       1.08       1.54      40.43       0.00      40.43        2.90     0.30   0.885
  31                        45.70       0.00       1.10       0.96      40.64       0.00      40.64        8.96     0.93   0.889
  32                        45.70       0.00       1.07       2.04      39.61       0.00      39.61       17.12     1.77   0.867
  33                        45.70       0.00       1.09       1.49      40.05       0.00      40.05       14.11     1.46   0.876
  34                        45.70       0.00       1.01       4.63      37.30       0.00      37.30       10.93     1.13   0.816
  35                        45.70       0.00       1.04       3.45      38.35       0.00      38.35       15.91     1.65   0.839
  36                        45.70       0.00       0.86      10.89      31.72       0.00      31.72       12.48     1.29   0.694
  37                        45.70       0.00       1.06       2.47      39.22       0.00      39.22        8.70     0.90   0.858
  38                        45.70       0.00       1.00       5.17      36.84       0.00      36.84       14.05     1.45   0.806
  39                        45.70       0.00       0.90       9.09      33.35       0.00      33.35       14.08     1.45   0.730
  40                        45.70       0.00       1.00       4.94      37.03       0.00      37.03        8.47     0.88   0.810
  41                        45.70       0.00       1.02       4.02      38.00       0.00      38.00        7.49     0.77   0.831
  42                        45.70       0.00       1.02       4.06      37.60       0.00      37.60        9.29     0.97   0.823
  43                        45.70       0.00       0.86      10.69      31.69       0.00      31.69       25.05     2.60   0.694
  44                        45.70       0.00       0.92       8.33      33.82       0.00      33.82       16.35     1.70   0.740
  45                        45.70       0.00       0.86      10.60      31.84       0.00      31.84       23.04     2.39   0.697
  46                        45.70       0.00       0.83      11.81      30.96       0.00      30.96       15.48     1.59   0.677
  47                        45.70       0.00       0.87      10.11      32.28       0.00      32.28       37.64     3.90   0.706
  48                        45.70       0.00       1.04       3.16      38.32       0.00      38.32       22.24     2.31   0.838
  49                        45.70       0.00       0.96       6.77      35.09       0.00      35.09       23.76     2.47   0.768
  50                        45.70       0.00       1.06       2.57      38.65       0.00      38.65       15.19     1.58   0.846
  51                        45.70       0.00       1.01       4.44      37.04       0.00      37.04        6.93     0.72   0.811
  52                        45.70       0.00       0.49      25.64      18.46       0.00      18.46       18.94     1.94   0.404
  53                        45.70       0.00       0.71      16.64      26.58       0.00      26.58       28.31     2.91   0.582
  54                        45.70       0.00       0.88       9.84      32.65       0.00      32.65        7.96     0.82   0.714
  55                        45.70       0.00       0.50      25.17      18.88       0.00      18.88       14.89     1.52   0.413
  56                        45.70       0.00       0.19      37.96       7.23       0.00       7.23        5.89     0.59   0.158
  57                        45.70       0.00       1.00       5.09      36.61       0.00      36.61       30.41     3.16   0.801
  58                        45.70       0.00       0.92       8.07      34.23       0.00      34.23        5.64     0.58   0.749
  59                        45.70       0.00       0.90       8.97      33.65       0.00      33.65        4.28     0.44   0.736
  60                        45.70       0.00       0.34      31.94      12.74       0.00      12.74        3.65     0.37   0.279
  61                        45.70       0.00       0.53      24.29      19.55       0.00      19.55        7.37     0.76   0.428
  62                        45.70       0.00       0.73      15.90      27.03       0.00      27.03       31.68     3.28   0.592
  63                        45.70       0.00       1.00       5.04      36.51       0.00      36.51       70.61     7.36   0.799
  64                        45.70       0.00       0.75      15.37      27.68       0.00      27.68        5.94     0.61   0.606
  65                        45.70       0.00       1.01       4.46      37.07       0.00      37.07       24.93     2.60   0.811
  66                        45.70       0.00       0.80      13.22      29.40       0.00      29.40        7.49     0.78   0.643
  67                        45.70       0.00       0.75      15.34      27.76       0.00      27.76        8.97     0.92   0.607
  68                        45.70       0.00       0.89       9.28      33.21       0.00      33.21        3.69     0.38   0.727
  69                        45.70       0.00       0.52      24.32      19.74       0.00      19.74        6.32     0.64   0.432
  70                        45.70       0.00       0.74      15.62      27.37       0.00      27.37       22.51     2.33   0.599
  71                        45.70       0.00       0.91       8.54      33.87       0.00      33.87        4.15     0.43   0.741
  72                        45.70       0.00       0.96       6.52      35.70       0.00      35.70        4.45     0.46   0.781
  73                        45.70       0.00       0.87      10.20      32.48       0.00      32.48        5.40     0.55   0.711
  74                        45.70       0.00       0.83      11.87      30.93       0.00      30.93        6.66     0.68   0.677
  75                        45.70       0.00       0.92       8.09      34.30       0.00      34.30        4.94     0.51   0.751
  76                        45.70       0.00       0.97       6.14      36.13       0.00      36.13        3.50     0.36   0.790
  77                        45.70       0.00       1.04       3.52      38.37       0.00      38.37        4.15     0.43   0.840
  78                        45.70       0.00       1.00       5.00      36.99       0.00      36.99        4.06     0.42   0.809
  79                        45.70       0.00       0.44      27.85      16.45       0.00      16.45       17.44     1.78   0.360
  80                        45.70       0.00       0.83      12.06      30.49       0.00      30.49       19.09     1.98   0.667
  81                        45.70       0.00       0.84      11.53      30.94       0.00      30.94       13.49     1.40   0.677
  82                        45.70       0.00       0.80      12.98      29.64       0.00      29.64       27.18     2.82   0.649
  83                        45.70       0.00       1.00       4.79      37.28       0.00      37.28        4.56     0.47   0.816
  84                        45.70       0.00       0.95       7.10      35.10       0.00      35.10        4.19     0.43   0.768
  85                        45.70       0.00       1.11       0.35      41.40       0.00      41.40        3.85     0.40   0.906
  86                        45.70       0.00       1.03       3.86      38.07       0.00      38.07        5.61     0.58   0.833
  87                        45.70       0.00       1.10       0.98      40.56       0.00      40.56        5.33     0.55   0.888
  88                        45.70       0.00       0.98       5.70      36.48       0.00      36.48        3.49     0.36   0.798
  89                        45.70       0.00       1.03       3.67      38.29       0.00      38.29        7.38     0.76   0.838
  90                        45.70       0.00       1.12       0.01      41.85       0.00      41.85        0.48     0.05   0.916
  91                        45.70       0.00       0.93       7.66      34.31       0.00      34.31        7.48     0.78   0.751
  92                        45.70       0.00       1.04       3.56      38.35       0.00      38.35        4.79     0.50   0.839
  93                        45.70       0.00       0.84      11.35      31.23       0.00      31.23       15.98     1.65   0.683
  94                        45.70       0.00       0.76      14.80      28.42       0.00      28.42        1.99     0.20   0.622
  95                        45.70       0.00       1.12       0.05      41.65       0.00      41.65        0.91     0.09   0.911
  96                        45.70       0.00       0.91       8.85      33.64       0.00      33.64        4.11     0.42   0.736
  97                        45.70       0.00       1.10       0.97      40.72       0.00      40.72        4.04     0.42   0.891
  98                        45.70       0.00       0.91       8.63      33.87       0.00      33.87        4.18     0.43   0.741
  99                        45.70       0.00       0.45      27.34      16.94       0.00      16.94        6.29     0.64   0.371
  100                       45.70       0.00       0.50      25.29      18.83       0.00      18.83        4.83     0.49   0.412
  101                       45.70       0.00       0.51      24.79      19.20       0.00      19.20        9.41     0.96   0.420
  102                       45.70       0.00       0.84      11.62      31.05       0.00      31.05        7.57     0.78   0.679
  103                       45.70       0.00       0.28      34.31      10.62       0.00      10.62        3.86     0.39   0.232
  104                       45.70       0.00       0.19      37.99       7.17       0.00       7.17        6.95     0.70   0.157
  105                       45.70       0.00       0.92       8.12      34.34       0.00      34.34        4.49     0.46   0.751
  106                       45.70       0.00       0.50      25.34      18.74       0.00      18.74        4.57     0.47   0.410
  
  
  ******************
  Node Depth Summary
  ******************
  
  ---------------------------------------------------------------------------------
                                 Average  Maximum  Maximum  Time of Max    Reported
                                   Depth    Depth      HGL   Occurrence   Max Depth
  Node                 Type       Meters   Meters   Meters  days hr:min      Meters
  ---------------------------------------------------------------------------------
  jd1                  JUNCTION     0.14     0.22   273.22     0  05:00        0.22
  jd2                  JUNCTION     0.96     3.00   270.00     0  04:06        3.00
  jd3                  JUNCTION     2.69     3.00   266.00     0  03:20        3.00
  jd4                  JUNCTION     2.06     3.00   270.00     0  03:33        3.00
  jd5                  JUNCTION     0.10     0.16   274.16     0  05:00        0.16
  jd6                  JUNCTION     0.12     0.21   275.21     0  05:00        0.21
  jd7                  JUNCTION     0.37     0.55   264.65     0  05:00        0.55
  jd8                  JUNCTION     2.26     3.00   267.00     0  03:22        3.00
  jd9                  JUNCTION     2.05     3.00   268.00     0  03:26        3.00
  jd10                 JUNCTION     2.70     3.00   273.00     0  03:16        3.00
  jd11                 JUNCTION     0.11     0.18   282.18     0  05:00        0.18
  jd12                 JUNCTION     2.71     3.00   272.00     0  03:14        3.00
  jd13                 JUNCTION     0.13     0.24   289.24     0  05:00        0.24
  jd14                 JUNCTION     0.76     3.00   283.00     0  04:09        3.00
  jd15                 JUNCTION     0.32     0.60   278.60     0  05:00        0.60
  jd16                 JUNCTION     0.35     0.64   274.64     0  05:00        0.64
  jd17                 JUNCTION     2.52     3.00   278.80     0  03:25        3.00
  jd18                 JUNCTION     0.86     3.00   282.00     0  04:13        3.00
  jd19                 JUNCTION     1.72     3.00   270.00     0  03:29        3.00
  jd20                 JUNCTION     0.22     0.36   273.36     0  05:00        0.36
  jd21                 JUNCTION     2.69     3.00   273.00     0  03:20        3.00
  jd22                 JUNCTION     2.05     3.00   275.00     0  03:23        3.00
  jd23                 JUNCTION     0.36     2.29   280.29     0  04:43        1.47
  jd24                 JUNCTION     0.16     0.27   285.27     0  05:00        0.27
  jd25                 JUNCTION     0.28     0.66   279.66     0  05:00        0.66
  jd26                 JUNCTION     0.81     3.00   288.00     0  04:08        3.00
  jd27                 JUNCTION     0.25     0.48   291.48     0  05:00        0.48
  jd28                 JUNCTION     2.72     3.00   290.00     0  03:11        3.00
  jd29                 JUNCTION     0.11     0.19   299.19     0  05:00        0.19
  jd30                 JUNCTION     0.15     0.25   290.25     0  04:33        0.25
  jd31                 JUNCTION     1.10     3.00   275.00     0  03:27        1.81
  jd32                 JUNCTION     2.71     3.00   275.00     0  03:14        3.00
  jd33                 JUNCTION     0.22     0.39   289.39     0  05:00        0.39
  jd34                 JUNCTION     0.41     3.00   297.00     0  04:20        1.75
  jd35                 JUNCTION     2.74     3.00   292.00     0  03:04        3.00
  jd36                 JUNCTION     1.26     3.00   302.00     0  03:56        3.00
  jd37                 JUNCTION     1.17     3.00   306.00     0  03:58        3.00
  jd38                 JUNCTION     0.51     3.00   300.00     0  04:36        1.41
  jd39                 JUNCTION     2.69     3.00   297.00     0  03:20        3.00
  jd40                 JUNCTION     1.56     3.00   302.00     0  03:40        3.00
  jd41                 JUNCTION     2.64     3.00   296.00     0  03:33        3.00
  jd42                 JUNCTION     0.22     0.40   305.40     0  05:00        0.40
  jd43                 JUNCTION     1.53     3.00   300.00     0  03:33        3.00
  jd44                 JUNCTION     1.54     3.00   286.00     0  03:39        3.00
  jd45                 JUNCTION     2.70     3.00   282.00     0  03:18        3.00
  jd46                 JUNCTION     0.37     3.00   278.00     0  04:52        1.59
  jd47                 JUNCTION     0.18     0.30   315.30     0  05:00        0.30
  jd48                 JUNCTION     0.12     0.21   325.21     0  05:00        0.21
  jd49                 JUNCTION     0.30     0.56   289.56     0  05:00        0.56
  jd50                 JUNCTION     2.73     3.00   278.00     0  03:10        3.00
  jd51                 JUNCTION     2.63     3.00   313.00     0  03:34        3.00
  jd52                 JUNCTION     0.91     3.00   326.00     0  04:07        2.01
  jd53                 JUNCTION     1.20     3.00   325.00     0  04:00        3.00
  jd54                 JUNCTION     0.32     0.57   326.57     0  05:00        0.57
  jd55                 JUNCTION     1.86     3.00   325.00     0  03:31        3.00
  jd56                 JUNCTION     0.22     0.40   327.40     0  05:00        0.40
  jd59                 JUNCTION     2.61     3.00   320.80     0  03:36        3.00
  jd60                 JUNCTION     2.71     3.00   319.00     0  03:13        3.00
  jd61                 JUNCTION     0.16     0.28   329.28     0  05:00        0.28
  jd62                 JUNCTION     0.07     0.12   335.12     0  05:00        0.12
  jd63                 JUNCTION     0.08     0.13   324.13     0  05:00        0.13
  jd64                 JUNCTION     2.46     3.00   321.00     0  03:36        2.91
  jd65                 JUNCTION     2.29     3.00   307.00     0  03:23        3.00
  jd66                 JUNCTION     2.70     3.00   304.00     0  03:17        3.00
  jd69                 JUNCTION     0.26     0.47   333.47     0  05:00        0.47
  jd79                 JUNCTION     2.72     3.00   274.00     0  03:12        3.00
  jd80                 JUNCTION     2.61     3.00   279.00     0  03:18        3.00
  jd81                 JUNCTION     0.17     0.29   288.29     0  05:00        0.29
  jd83                 JUNCTION     2.74     3.00   323.00     0  03:03        3.00
  jd84                 JUNCTION     0.68     3.00   326.00     0  04:10        3.00
  jd85                 JUNCTION     2.71     3.00   324.00     0  03:15        3.00
  jd87                 JUNCTION     2.71     3.00   322.00     0  03:15        3.00
  jd89                 JUNCTION     0.18     0.32   324.32     0  05:00        0.32
  jd90                 JUNCTION     0.16     0.28   328.28     0  05:00        0.28
  jd92                 JUNCTION     0.16     0.29   326.29     0  05:00        0.29
  jd93                 JUNCTION     1.17     3.00   327.00     0  04:02        3.00
  jd94                 JUNCTION     0.59     3.00   329.20     0  04:13        2.12
  jd95                 JUNCTION     0.67     3.00   330.00     0  04:14        2.52
  jd96                 JUNCTION     2.72     3.00   308.00     0  03:11        3.00
  jd97                 JUNCTION     0.69     3.00   330.20     0  04:14        2.66
  jd98                 JUNCTION     0.22     0.39   329.39     0  05:00        0.39
  jd99                 JUNCTION     2.70     3.00   327.00     0  03:17        3.00
  jd101                JUNCTION     0.12     0.21   321.21     0  05:00        0.21
  jd102                JUNCTION     0.28     0.56   324.56     0  05:00        0.56
  jd103                JUNCTION     0.13     0.22   318.22     0  05:00        0.22
  jd106                JUNCTION     2.66     3.00   287.00     0  03:26        3.00
  jd107                JUNCTION     0.24     0.41   332.41     0  05:00        0.41
  jd108                JUNCTION     1.17     1.70   327.70     0  03:14        1.51
  jd109                JUNCTION     0.19     0.33   343.33     0  05:00        0.33
  jd110                JUNCTION     2.71     3.00   327.00     0  03:15        3.00
  jd111                JUNCTION     0.08     0.14   344.14     0  05:00        0.14
  jd112                JUNCTION     0.10     0.18   334.18     0  05:00        0.18
  jd113                JUNCTION     0.12     0.20   348.20     0  05:00        0.20
  jd114                JUNCTION     2.70     3.00   317.00     0  03:17        3.00
  jd117                JUNCTION     1.45     3.00   319.00     0  03:20        3.00
  jd118                JUNCTION     0.10     0.18   330.18     0  05:00        0.18
  jd120                JUNCTION     0.18     0.36   327.36     0  05:00        0.36
  jd121                JUNCTION     0.18     0.33   320.33     0  05:00        0.33
  jd122                JUNCTION     2.69     3.00   276.00     0  03:19        3.00
  jd123                JUNCTION     2.68     3.00   276.20     0  03:21        3.00
  jd124                JUNCTION     2.77     3.00   271.00     0  02:48        3.00
  jd125                JUNCTION     1.87     3.00   278.00     0  03:31        3.00
  jd126                JUNCTION     2.74     3.00   275.00     0  03:03        3.00
  jd135                JUNCTION     0.16     0.28   289.28     0  05:00        0.28
  jd136                JUNCTION     0.30     0.54   341.54     0  05:00        0.54
  psk1                 OUTFALL      0.10     0.18   279.18     0  05:00        0.18
  psk2                 OUTFALL      0.15     0.25   270.25     0  04:33        0.25
  psk3                 OUTFALL      0.35     0.64   271.64     0  05:00        0.64
  psk4                 OUTFALL      0.00     0.00   280.00     0  00:00        0.00
  psk5                 OUTFALL      0.14     0.22   263.22     0  05:00        0.22
  psk6                 OUTFALL      0.10     0.16   259.16     0  05:00        0.16
  psk7                 OUTFALL      0.37     0.55   262.55     0  05:00        0.55
  psk8                 OUTFALL      0.00     0.00   317.00     0  00:00        0.00
  
  
  *******************
  Node Inflow Summary
  *******************
  
  -------------------------------------------------------------------------------------------------
                                  Maximum  Maximum                  Lateral       Total        Flow
                                  Lateral    Total  Time of Max      Inflow      Inflow     Balance
                                   Inflow   Inflow   Occurrence      Volume      Volume       Error
  Node                 Type           CMS      CMS  days hr:min    10^6 ltr    10^6 ltr     Percent
  -------------------------------------------------------------------------------------------------
  jd1                  JUNCTION     0.748    1.081     0  05:00        7.27        11.4       0.312
  jd2                  JUNCTION     1.161    1.540     0  05:00        11.1        15.1       0.438
  jd3                  JUNCTION     1.392    3.110     0  05:00        13.4        37.7       1.058
  jd4                  JUNCTION     1.676    1.864     0  05:00        16.1          18       0.558
  jd5                  JUNCTION     0.489    0.804     0  05:00        4.73        8.05       0.147
  jd6                  JUNCTION     0.565    0.565     0  05:00        5.45        5.45       0.191
  jd7                  JUNCTION     0.285    2.474     0  05:00        2.77        33.5       0.300
  jd8                  JUNCTION     0.396    1.342     0  05:00        3.85          22       1.104
  jd9                  JUNCTION     0.304    1.372     0  05:00        2.96        21.5       0.552
  jd10                 JUNCTION     0.811    1.026     0  05:00        7.84        9.94       1.019
  jd11                 JUNCTION     1.197    1.197     0  05:00        11.6        11.6       0.242
  jd12                 JUNCTION     0.902    1.982     0  05:00        8.69        18.9       0.726
  jd13                 JUNCTION     1.634    1.634     0  05:00        15.7        15.7       0.189
  jd14                 JUNCTION     1.917    2.166     0  05:00        18.4        20.8       0.311
  jd15                 JUNCTION     0.788    1.767     0  04:25        7.62          17       0.811
  jd16                 JUNCTION     0.848    3.447     0  05:00        8.21        32.3       0.341
  jd17                 JUNCTION     1.773    3.717     0  05:00        17.1        41.2       1.927
  jd18                 JUNCTION     1.406    2.053     0  05:00        13.6        19.7       0.486
  jd19                 JUNCTION     1.305    2.337     0  05:00        12.6        24.3       0.334
  jd20                 JUNCTION     1.085    1.332     0  05:00        10.5        15.9       0.533
  jd21                 JUNCTION     0.503    2.994     0  05:00        4.84        35.5       0.943
  jd22                 JUNCTION     0.886    1.746     0  05:00        8.53        18.1       0.447
  jd23                 JUNCTION     0.876    2.628     0  04:42        8.45        24.1       0.254
  jd24                 JUNCTION     1.439    1.439     0  05:00        13.9        13.9       0.234
  jd25                 JUNCTION     1.132    1.648     0  05:00        10.9        15.8       0.377
  jd26                 JUNCTION     1.647    2.610     0  05:00        15.9        26.1       0.342
  jd27                 JUNCTION     1.696    2.395     0  05:00        16.3        25.8       0.323
  jd28                 JUNCTION     2.315    2.962     0  05:00        22.2        30.2       0.443
  jd29                 JUNCTION     0.927    0.927     0  05:00        8.94        8.94       0.149
  jd30                 JUNCTION     0.965    2.807     0  04:32        9.27        27.5       0.179
  jd31                 JUNCTION     0.645    1.367     0  05:00         6.2        13.3       3.460
  jd32                 JUNCTION     1.308    4.363     0  05:00        12.6        49.7       0.499
  jd33                 JUNCTION     1.288    2.234     0  05:00        12.5        21.1       0.208
  jd34                 JUNCTION     1.593    1.593     0  05:00        15.4        15.4       0.170
  jd35                 JUNCTION     1.454    3.534     0  05:00        14.1        42.8       0.310
  jd36                 JUNCTION     2.471    3.469     0  05:00        23.7        36.6       0.381
  jd37                 JUNCTION     2.598    2.598     0  05:00          25          25       0.241
  jd38                 JUNCTION     2.386    3.293     0  05:00          23        36.1       0.529
  jd39                 JUNCTION     1.652    4.491     0  05:00        15.9        56.9       0.900
  jd40                 JUNCTION     2.817    5.007     0  05:00        27.1        59.4       0.525
  jd41                 JUNCTION     1.978    6.413     0  05:00          19        70.7       3.091
  jd42                 JUNCTION     2.598    2.847     0  05:00        24.9        27.3       0.365
  jd43                 JUNCTION     2.910    4.945     0  05:00        28.3        49.3       0.597
  jd44                 JUNCTION     3.898    6.539     0  05:00        37.6        78.1       0.562
  jd45                 JUNCTION     1.584    3.809     0  05:00        15.2        50.1       0.644
  jd46                 JUNCTION     0.722    0.722     0  05:00        6.92        6.92       1.017
  jd47                 JUNCTION     2.326    2.326     0  05:00        22.5        22.5       0.215
  jd48                 JUNCTION     0.643    0.643     0  05:00         6.3         6.3       0.263
  jd49                 JUNCTION     3.164    3.164     0  05:00        30.3        30.3       0.300
  jd50                 JUNCTION     3.279    6.724     0  05:00        31.6        78.9       0.550
  jd51                 JUNCTION     0.685    3.151     0  05:00        6.64        30.5       4.714
  jd52                 JUNCTION     1.398    4.199     0  04:06        13.5        41.5       0.546
  jd53                 JUNCTION     0.778    2.919     0  05:00        7.46        35.4       0.312
  jd54                 JUNCTION     0.418    2.077     0  05:00        4.04        20.1       0.380
  jd55                 JUNCTION     0.761    3.028     0  05:00        7.36        25.9       3.431
  jd56                 JUNCTION     0.462    1.353     0  05:00        4.48        13.1       0.322
  jd59                 JUNCTION     0.459    2.277     0  05:00        4.44        21.6       3.699
  jd60                 JUNCTION     0.822    1.743     0  05:00        7.94        16.9       0.753
  jd61                 JUNCTION     0.922    1.037     0  05:00        8.95        10.1       0.234
  jd62                 JUNCTION     0.371    0.371     0  05:00        3.64        3.64       0.111
  jd63                 JUNCTION     0.510    0.510     0  05:00        4.93        4.93       0.165
  jd64                 JUNCTION     0.429    1.059     0  05:00        4.14        10.2       3.772
  jd65                 JUNCTION     7.357    7.357     0  05:00        70.5        70.5       0.216
  jd66                 JUNCTION     0.963    2.793     0  05:00        9.39        27.2       1.156
  jd69                 JUNCTION     1.780    1.830     0  05:00        17.4        17.9       0.326
  jd79                 JUNCTION     1.733    2.649     0  05:00        16.7        28.8       0.610
  jd80                 JUNCTION     1.926    2.534     0  05:00        18.6        24.6       0.616
  jd81                 JUNCTION     1.464    1.464     0  05:00        14.1        14.1       0.083
  jd83                 JUNCTION     1.524    2.102     0  05:00        14.9        19.6       0.441
  jd84                 JUNCTION     1.936    1.936     0  05:00        18.9        18.9       0.241
  jd85                 JUNCTION     0.440    0.720     0  05:00        4.27        7.02       1.197
  jd87                 JUNCTION     0.360    0.870     0  05:00        3.49        8.43       0.879
  jd89                 JUNCTION     0.420    0.420     0  05:00        4.06        4.06       0.332
  jd90                 JUNCTION     0.429    0.429     0  05:00        4.15        4.15       0.230
  jd92                 JUNCTION     0.360    0.360     0  05:00        3.49        3.49       0.183
  jd93                 JUNCTION     0.777    1.679     0  05:00        7.48        16.1       0.407
  jd94                 JUNCTION     0.049    0.902     0  05:00       0.479        8.69       0.401
  jd95                 JUNCTION     0.094    0.852     0  05:00       0.907        8.25       0.477
  jd96                 JUNCTION     0.702    0.937     0  05:00        6.93        9.19       1.044
  jd97                 JUNCTION     0.759    0.759     0  05:00        7.35        7.35       0.132
  jd98                 JUNCTION     0.423    0.423     0  05:00         4.1         4.1       0.200
  jd99                 JUNCTION     0.204    0.479     0  05:00        1.99        5.71       0.977
  jd101                JUNCTION     0.555    1.107     0  05:00        5.38        10.7       0.182
  jd102                JUNCTION     0.553    0.553     0  05:00        5.32        5.32       0.283
  jd103                JUNCTION     0.381    0.381     0  05:00        3.68        3.68       0.098
  jd106                JUNCTION     0.298    1.731     0  05:00        2.89        16.9       2.350
  jd107                JUNCTION     0.430    1.413     0  05:00        4.17        13.7       0.370
  jd108                JUNCTION     0.467    0.467     0  05:00        4.56        4.58       1.451
  jd109                JUNCTION     0.781    0.781     0  05:00        7.55        7.55       0.090
  jd110                JUNCTION     0.593    0.883     0  05:00        5.88        8.72       1.761
  jd111                JUNCTION     0.492    0.492     0  05:00        4.82        4.82       0.187
  jd112                JUNCTION     0.579    1.610     0  05:00         5.6        15.7       0.152
  jd113                JUNCTION     0.390    0.390     0  05:00        3.85        3.85       0.054
  jd114                JUNCTION     0.470    4.186     0  05:00        4.55        51.7       0.600
  jd117                JUNCTION     0.433    1.417     0  05:00        4.18        13.8       1.104
  jd118                JUNCTION     0.397    0.397     0  05:00        3.84        3.84       0.041
  jd120                JUNCTION     0.495    0.495     0  05:00        4.78        4.78       0.163
  jd121                JUNCTION     0.612    0.612     0  05:00        5.93        5.93       0.199
  jd122                JUNCTION     1.453    5.186     0  04:47          14        55.6       0.999
  jd123                JUNCTION     1.494    3.851     0  05:00        14.4        51.7       1.331
  jd124                JUNCTION     2.157    3.230     0  05:00        20.7          42       0.146
  jd125                JUNCTION     2.098    3.773     0  05:00        20.1          51       0.257
  jd126                JUNCTION     3.048    3.911     0  05:00        29.2        39.7       0.258
  jd135                JUNCTION     0.773    0.773     0  05:00        7.48        7.48       0.144
  jd136                JUNCTION     0.641    1.030     0  05:00        6.27        10.1       0.390
  psk1                 OUTFALL      0.000    0.776     0  05:00           0        7.49       0.000
  psk2                 OUTFALL      0.000    2.131     0  04:33           0        20.5       0.000
  psk3                 OUTFALL      0.000    3.447     0  05:00           0        32.2       0.000
  psk4                 OUTFALL      0.000    0.000     0  00:00           0           0       0.000 ltr
  psk5                 OUTFALL      0.000    0.702     0  05:00           0        7.37       0.000
  psk6                 OUTFALL      0.000    0.617     0  05:00           0        6.16       0.000
  psk7                 OUTFALL      0.000    2.474     0  05:00           0        33.4       0.000
  psk8                 OUTFALL      0.000    0.000     0  00:00           0           0       0.000 ltr
  
  
  **********************
  Node Surcharge Summary
  **********************
  
  Surcharging occurs when water rises above the top of the highest conduit.
  ---------------------------------------------------------------------
                                               Max. Height   Min. Depth
                                   Hours       Above Crown    Below Rim
  Node                 Type      Surcharged         Meters       Meters
  ---------------------------------------------------------------------
  jd2                  JUNCTION        1.93          2.200        0.000
  jd3                  JUNCTION        6.65          2.200        0.000
  jd4                  JUNCTION        4.70          2.200        0.000
  jd8                  JUNCTION        6.62          2.200        0.000
  jd9                  JUNCTION        4.90          2.200        0.000
  jd10                 JUNCTION        6.73          2.400        0.000
  jd12                 JUNCTION        6.76          2.400        0.000
  jd14                 JUNCTION        1.13          2.400        0.000
  jd17                 JUNCTION        6.57          2.200        0.000
  jd18                 JUNCTION        1.27          2.000        0.000
  jd19                 JUNCTION        3.68          2.200        0.000
  jd21                 JUNCTION        6.66          2.200        0.000
  jd22                 JUNCTION        6.62          2.400        0.000
  jd23                 JUNCTION        0.39          1.294        0.706
  jd26                 JUNCTION        1.21          2.400        0.000
  jd28                 JUNCTION        6.81          2.400        0.000
  jd31                 JUNCTION        6.54          2.200        0.000
  jd32                 JUNCTION        6.76          2.200        0.000
  jd34                 JUNCTION        0.71          2.400        0.000
  jd35                 JUNCTION        6.93          2.400        0.000
  jd36                 JUNCTION        2.18          2.400        0.000
  jd37                 JUNCTION        2.07          2.400        0.000
  jd38                 JUNCTION        0.48          2.000        0.000
  jd39                 JUNCTION        6.66          2.000        0.000
  jd40                 JUNCTION        2.78          2.200        0.000
  jd41                 JUNCTION        6.45          1.000        0.000
  jd43                 JUNCTION        2.64          2.200        0.000
  jd44                 JUNCTION        2.70          2.000        0.000
  jd45                 JUNCTION        6.69          2.000        0.000
  jd46                 JUNCTION        0.22          2.200        0.000
  jd50                 JUNCTION        6.83          2.200        0.000
  jd51                 JUNCTION        6.43          1.350        0.000
  jd52                 JUNCTION        1.93          1.500        0.000
  jd53                 JUNCTION        2.14          1.800        0.000
  jd55                 JUNCTION        3.55          1.500        0.000
  jd59                 JUNCTION        6.39          1.500        0.000
  jd60                 JUNCTION        6.77          2.400        0.000
  jd64                 JUNCTION        6.40          1.800        0.000
  jd65                 JUNCTION        5.08          2.400        0.000
  jd66                 JUNCTION        6.72          2.200        0.000
  jd79                 JUNCTION        6.79          2.400        0.000
  jd80                 JUNCTION        6.70          2.400        0.000
  jd83                 JUNCTION        6.95          2.400        0.000
  jd84                 JUNCTION        0.92          2.400        0.000
  jd85                 JUNCTION        6.75          2.400        0.000
  jd87                 JUNCTION        6.75          2.400        0.000
  jd93                 JUNCTION        2.13          2.200        0.000
  jd94                 JUNCTION        1.20          2.200        0.000
  jd95                 JUNCTION        0.98          2.200        0.000
  jd96                 JUNCTION        6.81          2.200        0.000
  jd97                 JUNCTION        0.94          2.200        0.000
  jd99                 JUNCTION        6.71          2.400        0.000
  jd106                JUNCTION        6.56          2.000        0.000
  jd108                JUNCTION        6.77          0.698        1.302
  jd110                JUNCTION        6.75          2.000        0.000
  jd114                JUNCTION        6.71          2.000        0.000
  jd117                JUNCTION        6.66          2.200        0.000
  jd122                JUNCTION        6.68          2.200        0.000
  jd123                JUNCTION        6.65          2.200        0.000
  jd124                JUNCTION        7.19          2.400        0.000
  jd125                JUNCTION        4.65          2.200        0.000
  jd126                JUNCTION        6.94          2.400        0.000
  
  
  *********************
  Node Flooding Summary
  *********************
  
  Flooding refers to all water that overflows a node, whether it ponds or not.
  --------------------------------------------------------------------------
                                                             Total   Maximum
                                 Maximum   Time of Max       Flood    Ponded
                        Hours       Rate    Occurrence      Volume     Depth
  Node                 Flooded       CMS   days hr:min    10^6 ltr    Meters
  --------------------------------------------------------------------------
  jd2                     1.00     0.332      0  05:00       0.886     0.000
  jd3                     6.65     3.110      0  05:00      37.356     0.000
  jd4                     3.68     1.354      0  05:00       7.669     0.000
  jd8                     3.26     0.391      0  03:22       1.570     0.000
  jd9                     2.72     0.440      0  03:26       3.207     0.000
  jd10                    6.73     1.026      0  05:00       9.846     0.000
  jd12                    6.76     1.982      0  05:00      18.793     0.000
  jd14                    0.87     0.331      0  05:00       0.784     0.000
  jd17                    4.82     2.888      0  05:00      21.519     0.000
  jd18                    0.91     0.656      0  04:13       1.497     0.000
  jd19                    2.58     1.269      0  05:00       5.697     0.000
  jd21                    6.57     2.994      0  05:00      34.893     0.000
  jd22                    2.56     0.922      0  05:00       4.355     0.000
  jd26                    1.03     0.714      0  05:00       2.111     0.000
  jd28                    6.81     2.962      0  05:00      30.059     0.000
  jd31                    0.01     1.018      0  03:27       0.010     0.000
  jd32                    6.76     4.363      0  05:00      49.480     0.000
  jd34                    0.01     0.086      0  04:20       0.000     0.000
  jd35                    6.92     3.534      0  05:00      42.703     0.000
  jd36                    1.87     1.337      0  05:00       4.965     0.000
  jd37                    1.46     1.150      0  05:00       3.841     0.000
  jd38                    0.01     0.187      0  04:36       0.001     0.000
  jd39                    6.66     4.491      0  05:00      56.360     0.000
  jd40                    2.65     2.445      0  05:00      14.862     0.000
  jd41                    6.45     6.413      0  05:00      68.560     0.000
  jd43                    2.59     3.114      0  05:00      16.549     0.000
  jd44                    2.43     2.639      0  05:00      11.792     0.000
  jd45                    6.69     3.809      0  05:00      49.809     0.000
  jd46                    0.01     0.078      0  04:52       0.001     0.000
  jd50                    6.83     6.724      0  05:00      78.513     0.000
  jd51                    6.43     3.151      0  05:00      29.104     0.000
  jd52                    0.01     1.687      0  04:07       0.030     0.000
  jd53                    1.02     0.616      0  05:00       1.797     0.000
  jd55                    1.91     3.028      0  05:00      11.731     0.000
  jd59                    6.39     2.277      0  05:00      20.807     0.000
  jd60                    6.77     1.743      0  05:00      16.783     0.000
  jd64                    0.02     0.579      0  03:37       0.024     0.000
  jd65                    5.02     6.264      0  05:00      45.182     0.000
  jd66                    6.72     2.793      0  05:00      26.905     0.000
  jd79                    6.79     2.402      0  05:00      23.215     0.000
  jd80                    5.67     2.376      0  05:00      19.741     0.000
  jd83                    6.94     2.102      0  05:00      19.552     0.000
  jd84                    0.78     0.237      0  04:10       0.229     0.000
  jd85                    6.75     0.720      0  05:00       6.938     0.000
  jd87                    6.75     0.870      0  05:00       8.356     0.000
  jd93                    0.93     0.488      0  05:00       1.358     0.000
  jd94                    0.01     0.275      0  04:13       0.002     0.000
  jd95                    0.01     0.230      0  04:14       0.003     0.000
  jd96                    6.81     0.937      0  05:00       9.100     0.000
  jd97                    0.01     0.068      0  04:14       0.002     0.000
  jd99                    6.71     0.479      0  05:00       5.660     0.000
  jd106                   6.56     1.731      0  05:00      16.479     0.000
  jd110                   6.75     0.883      0  05:00       8.570     0.000
  jd114                   6.68     4.186      0  05:00      51.369     0.000
  jd117                   0.33     0.791      0  03:20       0.016     0.000
  jd122                   6.68     5.186      0  04:47      54.887     0.000
  jd123                   6.65     3.536      0  05:00      43.530     0.000
  jd124                   7.19     3.230      0  05:00      41.969     0.000
  jd125                   2.52     1.387      0  05:00       6.992     0.000
  jd126                   6.94     3.911      0  05:00      39.651     0.000
  
  
  ***********************
  Outfall Loading Summary
  ***********************
  
  -----------------------------------------------------------
                         Flow       Avg       Max       Total
                         Freq      Flow      Flow      Volume
  Outfall Node           Pcnt       CMS       CMS    10^6 ltr
  -----------------------------------------------------------
  psk1                  95.99     0.336     0.776       7.486
  psk2                  95.19     0.936     2.131      20.471
  psk3                  96.39     1.447     3.447      32.151
  psk4                   0.00     0.000     0.000       0.000
  psk5                  95.19     0.331     0.702       7.370
  psk6                  95.28     0.277     0.617       6.164
  psk7                  94.98     1.442     2.474      33.382
  psk8                   0.00     0.000     0.000       0.000
  -----------------------------------------------------------
  System                71.63     4.770     0.000     107.023
  
  
  ********************
  Link Flow Summary
  ********************
  
  -----------------------------------------------------------------------------
                                 Maximum  Time of Max   Maximum    Max/    Max/
                                  |Flow|   Occurrence   |Veloc|    Full    Full
  Link                 Type          CMS  days hr:min     m/sec    Flow   Depth
  -----------------------------------------------------------------------------
  GQ1                  CONDUIT     0.356     0  04:18      1.94    0.93    0.69
  GQ2                  CONDUIT     1.427     0  05:00      2.79    0.68    0.62
  GQ3                  CONDUIT     0.776     0  05:00      6.64    0.03    0.12
  GQ4                  CONDUIT     0.510     0  04:22      1.80    1.00    1.00
  GQ5                  CONDUIT     1.208     0  04:32      2.40    1.00    1.00
  GQ6                  CONDUIT     0.379     0  05:00      1.19    0.17    0.64
  GQ7                  CONDUIT     1.675     0  03:57      3.65    1.00    1.00
  GQ8                  CONDUIT     0.810     0  05:00      1.78    0.77    0.85
  GQ9                  CONDUIT     2.352     0  05:00      5.18    0.83    0.85
  GQ10                 CONDUIT     1.134     0  08:30      4.10    1.04    1.00
  GQ11                 CONDUIT     0.249     0  05:00      1.88    0.27    0.51
  GQ12                 CONDUIT     0.300     0  05:00      1.43    0.33    0.70
  GQ13                 CONDUIT     0.188     0  05:00      0.59    0.09    0.60
  GQ14                 CONDUIT     0.098     0  05:00      1.12    0.14    0.23
  GQ15                 CONDUIT     0.218     0  05:00      4.39    0.88    0.66
  GQ16                 CONDUIT     1.866     0  04:32      4.06    0.90    0.63
  GQ17                 CONDUIT     0.467     0  05:00      1.98    0.15    0.48
  GQ18                 CONDUIT     1.092     0  05:00      2.50    4.92    0.85
  GQ19                 CONDUIT     0.630     0  05:00      2.39    0.07    0.37
  GQ20                 CONDUIT     0.138     0  05:00      0.45    0.07    0.59
  GQ21                 CONDUIT     0.509     0  05:00      1.38    0.16    0.63
  GQ22                 CONDUIT     0.516     0  05:00      1.80    0.16    0.46
  GQ23                 CONDUIT     1.237     0  05:04      2.31    0.61    0.83
  GQ24                 CONDUIT     1.742     0  05:00      3.51    0.86    1.00
  GQ25                 CONDUIT     0.946     0  05:00      4.00    1.06    0.83
  GQ26                 CONDUIT     0.649     0  05:00      2.68    0.76    0.83
  GQ27                 CONDUIT     0.860     0  05:00      3.04    0.86    1.00
  GQ28                 CONDUIT     0.300     0  05:00      0.77    0.32    0.73
  GQ29                 CONDUIT     1.367     0  05:00      2.72    0.64    1.00
  GQ30                 CONDUIT     0.824     0  03:51      2.91    1.00    1.00
  GQ31                 CONDUIT     0.647     0  05:00      2.29    0.87    1.00
  GQ32                 CONDUIT     0.699     0  05:00      2.95    1.12    0.90
  GQ33                 CONDUIT     1.434     0  04:05      5.07    1.00    1.00
  GQ34                 CONDUIT     0.458     0  05:00      1.82    0.72    0.84
  GQ35                 CONDUIT     0.557     0  03:56      2.14    1.03    1.00
  GQ36                 CONDUIT     0.953     0  04:01      3.37    1.18    1.00
  GQ37                 CONDUIT     0.453     0  05:00      1.69    0.65    0.90
  GQ38                 CONDUIT     0.195     0  04:33      0.91    0.28    0.71
  GQ39                 CONDUIT     0.782     0  05:05      2.76    1.00    1.00
  GQ40                 CONDUIT     0.634     0  05:00      2.49    0.79    0.90
  GQ41                 CONDUIT     1.480     0  05:00      1.88    0.69    1.00
  GQ42                 CONDUIT     1.359     0  05:47      2.70    1.00    1.00
  GQ43                 CONDUIT     2.312     0  03:59      4.70    1.03    1.00
  GQ44                 CONDUIT     0.946     0  03:54      1.88    1.00    1.00
  GQ45                 CONDUIT     1.032     0  05:00      2.64    0.42    0.73
  GQ46                 CONDUIT     1.068     0  04:03      2.14    1.00    1.00
  GQ47                 CONDUIT     0.215     0  05:00      1.10    0.20    0.65
  GQ48                 CONDUIT     0.214     0  05:00      1.09    0.20    0.65
  GQ49                 CONDUIT     0.866     0  05:00      4.12    0.33    0.70
  GQ50                 CONDUIT     0.249     0  05:00      1.19    0.33    0.70
  GQ51                 CONDUIT     0.995     0  04:24      3.53    1.52    1.00
  GQ52                 CONDUIT     0.722     0  05:00      1.44    0.96    1.00
  GQ53                 CONDUIT     2.225     0  04:32      2.83    1.00    1.00
  GQ54                 CONDUIT     0.528     0  05:00      2.37    0.45    0.74
  GQ55                 CONDUIT     0.394     0  05:00      1.94    0.27    0.68
  GQ56                 CONDUIT     2.009     0  03:35      4.25    1.10    1.00
  GQ57                 CONDUIT     0.774     0  05:00      1.91    0.51    0.75
  GQ58                 CONDUIT     1.612     0  05:00      3.98    0.51    0.75
  GQ59                 CONDUIT     1.203     0  04:48      2.39    1.00    1.00
  GQ60                 CONDUIT     2.051     0  04:06      1.16    0.49    1.00
  GQ61                 CONDUIT     0.339     0  05:00      0.33    0.04    0.57
  GQ62                 CONDUIT     0.706     0  05:00      0.54    0.07    0.59
  GQ63                 CONDUIT     1.620     0  05:00      0.87    0.05    0.57
  GQ64                 CONDUIT     0.115     0  05:00      1.40    0.09    0.34
  GQ65                 CONDUIT     0.049     0  05:00      0.36    0.09    0.49
  GQ66                 CONDUIT     0.202     0  05:00      0.66    0.06    0.58
  GQ67                 CONDUIT     1.059     0  04:58      0.94    0.73    1.00
  GQ68                 CONDUIT     1.077     0  05:00      1.83    0.34    0.70
  GQ69                 CONDUIT     1.830     0  05:00      4.27    0.65    0.79
  GQ70                 CONDUIT     0.617     0  05:00      8.54    0.09    0.20
  GQ71                 CONDUIT     0.702     0  05:00      6.09    0.17    0.28
  GQ72                 CONDUIT     2.474     0  05:00      5.55    0.59    0.55
  GQ73                 CONDUIT     2.131     0  04:33     13.75    0.14    0.25
  GQ74                 CONDUIT     0.413     0  05:00      1.42    0.07    0.41
  GQ75                 CONDUIT     0.479     0  04:33      0.93    0.14    0.63
  GQ76                 CONDUIT     3.447     0  05:00      6.45    0.75    0.64
  GQ77                 CONDUIT     0.000     0  00:00      0.00    0.00    0.30
  GQ78                 CONDUIT     0.916     0  04:22      3.24    1.00    1.00
  GQ79                 CONDUIT     0.248     0  05:00      1.08    0.53    0.80
  GQ80                 CONDUIT     0.608     0  04:26      2.15    1.00    1.00
  GQ81                 CONDUIT     0.605     0  03:23      2.20    3.83    1.00
  GQ82                 CONDUIT     0.704     0  05:00      3.11    0.49    0.75
  GQ83                 CONDUIT     0.760     0  05:00      3.36    0.49    0.75
  GQ84                 CONDUIT     1.303     0  04:09      4.71    1.03    1.00
  GQ85                 CONDUIT     0.579     0  04:25      2.05    1.00    1.00
  GQ86                 CONDUIT     0.207     0  05:00      1.17    0.09    0.60
  GQ87                 CONDUIT     0.073     0  05:00      0.41    0.11    0.61
  GQ88                 CONDUIT     0.509     0  05:00      2.28    0.45    0.74
  GQ89                 CONDUIT     0.420     0  05:00      1.81    0.55    0.77
  GQ90                 CONDUIT     0.429     0  05:00      1.94    0.43    0.73
  GQ91                 CONDUIT     0.360     0  05:00      1.59    0.44    0.74
  GQ92                 CONDUIT     0.852     0  05:00      1.79    1.23    1.00
  GQ93                 CONDUIT     0.902     0  05:00      1.79    0.77    1.00
  GQ94                 CONDUIT     1.201     0  05:08      2.39    1.43    1.00
  GQ95                 CONDUIT     0.234     0  05:00      0.77    0.06    0.58
  GQ96                 CONDUIT     0.759     0  05:00      1.51    1.30    1.00
  GQ97                 CONDUIT     0.423     0  05:00      2.13    0.76    0.66
  GQ98                 CONDUIT     0.275     0  05:00      1.09    0.39    0.84
  GQ99                 CONDUIT     0.768     0  05:00      0.74    0.04    0.57
  GQ100                CONDUIT     0.552     0  05:00      3.03    0.95    0.64
  GQ101                CONDUIT     0.381     0  05:00      1.85    0.28    0.68
  GQ102                CONDUIT     1.585     0  05:00      3.95    0.48    0.74
  GQ103                CONDUIT     0.539     0  04:45      1.96    0.83    1.00
  GQ104                CONDUIT     1.306     0  05:00      4.88    0.95    0.90
  GQ105                CONDUIT     1.049     0  03:21      2.09    3.33    1.00
  GQ106                CONDUIT     0.414     0  05:00      1.89    0.41    0.72
  GQ107                CONDUIT     1.114     0  04:16      3.94    1.00    1.00
  GQ108                CONDUIT     0.829     0  04:07      1.65    1.00    1.00
  GQ109                CONDUIT     0.328     0  05:00      1.47    0.44    0.74
  GQ110                CONDUIT     0.514     0  05:00      1.06    0.07    0.59
  GQ111                CONDUIT     0.445     0  05:00      2.00    0.41    0.74
  GQ112                CONDUIT     1.413     0  05:00      3.27    0.25    0.41
  GQ113                CONDUIT     0.781     0  05:00      4.25    0.59    0.62
  GQ114                CONDUIT     0.467     0  04:53      0.79    0.19    0.70
  GQ115                CONDUIT     0.202     0  05:00      1.04    0.03    0.23
  GQ116                CONDUIT     0.290     0  05:00      0.63    0.04    0.57
  GQ117                CONDUIT     1.030     0  05:00      4.69    0.64    0.45
  GQ118                CONDUIT     0.390     0  05:00      1.90    0.13    0.46
  GQ119                CONDUIT     2.302     0  04:33      4.58    1.00    1.00
  GQ120                CONDUIT     0.000     0  00:00      0.00    0.00    0.50
  GQ121                CONDUIT     1.414     0  04:56      2.81    1.00    1.00
  GQ122                CONDUIT     0.587     0  05:00      1.90    0.11    0.61
  GQ123                CONDUIT     0.397     0  05:00      2.05    0.19    0.65
  GQ124                CONDUIT     0.246     0  05:00      1.08    0.11    0.46
  GQ125                CONDUIT     0.495     0  05:00      2.05    0.56    0.80
  GQ126                CONDUIT     0.612     0  05:00      2.60    0.58    0.77
  GQ127                CONDUIT     0.785     0  06:08      1.68    1.00    1.00
  GQ128                CONDUIT     2.076     0  05:00      2.78    0.45    0.74
  GQ129                CONDUIT     1.313     0  05:48      2.61    1.00    1.00
  GQ130                CONDUIT     1.073     0  03:52      3.79    1.00    1.00
  GQ131                CONDUIT     0.862     0  04:20      3.05    1.00    1.00
  
  
  ***************************
  Flow Classification Summary
  ***************************
  
  -------------------------------------------------------------------------------------
                      Adjusted    ---------- Fraction of Time in Flow Class ---------- 
                       /Actual         Up    Down  Sub   Sup   Up    Down  Norm  Inlet 
  Conduit               Length    Dry  Dry   Dry   Crit  Crit  Crit  Crit  Ltd   Ctrl  
  -------------------------------------------------------------------------------------
  GQ1                     1.00   0.03  0.00  0.00  0.20  0.78  0.00  0.00  0.00  0.00
  GQ2                     1.00   0.03  0.00  0.00  0.08  0.90  0.00  0.00  0.88  0.00
  GQ3                     1.00   0.04  0.00  0.00  0.01  0.95  0.00  0.00  0.13  0.00
  GQ4                     1.00   0.03  0.00  0.00  0.97  0.00  0.00  0.00  0.35  0.00
  GQ5                     1.00   0.03  0.00  0.00  0.97  0.00  0.00  0.00  0.63  0.00
  GQ6                     1.00   0.03  0.00  0.00  0.96  0.01  0.00  0.00  0.90  0.00
  GQ7                     1.00   0.03  0.00  0.00  0.56  0.41  0.00  0.00  0.15  0.00
  GQ8                     1.00   0.03  0.00  0.00  0.97  0.00  0.00  0.00  0.81  0.00
  GQ9                     1.00   0.03  0.00  0.00  0.52  0.46  0.00  0.00  0.90  0.00
  GQ10                    1.00   0.03  0.00  0.00  0.80  0.17  0.00  0.00  0.38  0.00
  GQ11                    1.00   0.03  0.00  0.00  0.13  0.84  0.00  0.00  0.87  0.00
  GQ12                    1.00   0.03  0.00  0.00  0.97  0.01  0.00  0.00  0.90  0.00
  GQ13                    1.00   0.03  0.01  0.00  0.97  0.00  0.00  0.00  0.90  0.00
  GQ14                    1.00   0.03  0.00  0.00  0.96  0.01  0.00  0.00  0.05  0.00
  GQ15                    1.00   0.03  0.00  0.00  0.03  0.95  0.00  0.00  0.01  0.00
  GQ16                    1.00   0.03  0.00  0.00  0.03  0.94  0.00  0.00  0.00  0.00
  GQ17                    1.00   0.03  0.00  0.00  0.67  0.30  0.00  0.00  0.89  0.00
  GQ18                    1.00   0.03  0.00  0.00  0.85  0.13  0.00  0.00  0.17  0.00
  GQ19                    1.00   0.03  0.00  0.00  0.45  0.53  0.00  0.00  0.89  0.00
  GQ20                    1.00   0.03  0.00  0.00  0.97  0.00  0.00  0.00  0.90  0.00
  GQ21                    1.00   0.03  0.00  0.00  0.66  0.31  0.00  0.00  0.90  0.00
  GQ22                    1.00   0.03  0.00  0.00  0.10  0.88  0.00  0.00  0.90  0.00
  GQ23                    1.00   0.03  0.00  0.00  0.18  0.79  0.00  0.00  0.32  0.00
  GQ24                    1.00   0.03  0.00  0.00  0.89  0.08  0.00  0.00  0.77  0.00
  GQ25                    1.00   0.03  0.00  0.00  0.01  0.97  0.00  0.00  0.01  0.00
  GQ26                    1.00   0.03  0.00  0.00  0.04  0.93  0.00  0.00  0.82  0.00
  GQ27                    1.00   0.03  0.00  0.00  0.68  0.29  0.00  0.00  0.64  0.00
  GQ28                    1.00   0.03  0.00  0.00  0.97  0.00  0.00  0.00  0.77  0.00
  GQ29                    1.00   0.03  0.00  0.00  0.97  0.00  0.00  0.00  0.23  0.00
  GQ30                    1.00   0.03  0.00  0.00  0.96  0.02  0.00  0.00  0.21  0.00
  GQ31                    1.00   0.03  0.00  0.00  0.97  0.00  0.00  0.00  0.68  0.00
  GQ32                    1.00   0.03  0.00  0.00  0.12  0.86  0.00  0.00  0.01  0.00
  GQ33                    1.00   0.03  0.00  0.00  0.60  0.37  0.00  0.00  0.62  0.00
  GQ34                    1.00   0.03  0.00  0.00  0.96  0.01  0.00  0.00  0.80  0.00
  GQ35                    1.00   0.03  0.00  0.00  0.45  0.52  0.00  0.00  0.39  0.00
  GQ36                    1.00   0.03  0.00  0.00  0.39  0.58  0.00  0.00  0.59  0.00
  GQ37                    1.00   0.03  0.00  0.00  0.97  0.00  0.00  0.00  0.66  0.00
  GQ38                    1.00   0.03  0.01  0.00  0.97  0.00  0.00  0.00  0.74  0.00
  GQ39                    1.00   0.03  0.00  0.00  0.96  0.02  0.00  0.00  0.65  0.00
  GQ40                    1.00   0.03  0.00  0.00  0.26  0.72  0.00  0.00  0.79  0.00
  GQ41                    1.00   0.03  0.00  0.00  0.97  0.00  0.00  0.00  0.62  0.00
  GQ42                    1.00   0.03  0.00  0.00  0.97  0.00  0.00  0.00  0.42  0.00
  GQ43                    1.00   0.03  0.00  0.00  0.41  0.56  0.00  0.00  0.64  0.00
  GQ44                    1.00   0.03  0.00  0.00  0.97  0.00  0.00  0.00  0.31  0.00
  GQ45                    1.00   0.03  0.00  0.00  0.58  0.39  0.00  0.00  0.85  0.00
  GQ46                    1.00   0.03  0.00  0.00  0.82  0.16  0.00  0.00  0.28  0.00
  GQ47                    1.00   0.03  0.00  0.00  0.97  0.00  0.00  0.00  0.90  0.00
  GQ48                    1.00   0.03  0.00  0.00  0.97  0.00  0.00  0.00  0.90  0.00
  GQ49                    1.00   0.03  0.00  0.00  0.52  0.45  0.00  0.00  0.90  0.00
  GQ50                    1.00   0.03  0.00  0.00  0.97  0.00  0.00  0.00  0.90  0.00
  GQ51                    1.00   0.03  0.00  0.00  0.22  0.76  0.00  0.00  0.43  0.00
  GQ52                    1.00   0.03  0.00  0.00  0.97  0.00  0.00  0.00  0.62  0.00
  GQ53                    1.00   0.03  0.00  0.00  0.97  0.00  0.00  0.00  0.47  0.00
  GQ54                    1.00   0.03  0.00  0.00  0.80  0.18  0.00  0.00  0.90  0.00
  GQ55                    1.00   0.03  0.00  0.00  0.84  0.13  0.00  0.00  0.90  0.00
  GQ56                    1.00   0.03  0.00  0.00  0.46  0.51  0.00  0.00  0.39  0.00
  GQ57                    1.00   0.03  0.00  0.00  0.97  0.00  0.00  0.00  0.90  0.00
  GQ58                    1.00   0.03  0.00  0.00  0.59  0.39  0.00  0.00  0.90  0.00
  GQ59                    1.00   0.03  0.00  0.00  0.97  0.00  0.00  0.00  0.47  0.00
  GQ60                    1.00   0.03  0.00  0.00  0.97  0.00  0.00  0.00  0.25  0.00
  GQ61                    1.00   0.03  0.00  0.00  0.97  0.00  0.00  0.00  0.90  0.00
  GQ62                    1.00   0.03  0.00  0.00  0.97  0.00  0.00  0.00  0.90  0.00
  GQ63                    1.00   0.03  0.00  0.00  0.96  0.01  0.00  0.00  0.90  0.00
  GQ64                    1.00   0.03  0.00  0.00  0.12  0.86  0.00  0.00  0.90  0.00
  GQ65                    1.00   0.03  0.00  0.00  0.97  0.00  0.00  0.00  0.90  0.00
  GQ66                    1.00   0.03  0.00  0.00  0.97  0.01  0.00  0.00  0.90  0.00
  GQ67                    1.00   0.03  0.00  0.00  0.97  0.00  0.00  0.00  0.22  0.00
  GQ68                    1.00   0.03  0.00  0.00  0.97  0.00  0.00  0.00  0.90  0.00
  GQ69                    1.00   0.03  0.00  0.00  0.52  0.46  0.00  0.00  0.90  0.00
  GQ70                    1.00   0.03  0.00  0.00  0.02  0.95  0.00  0.00  0.02  0.00
  GQ71                    1.00   0.03  0.00  0.00  0.02  0.95  0.00  0.00  0.03  0.00
  GQ72                    1.00   0.03  0.00  0.00  0.01  0.97  0.00  0.00  0.23  0.00
  GQ73                    1.00   0.03  0.00  0.00  0.02  0.95  0.00  0.00  0.04  0.00
  GQ74                    1.00   0.03  0.00  0.00  0.90  0.07  0.00  0.00  0.89  0.00
  GQ75                    1.00   0.03  0.01  0.00  0.97  0.00  0.00  0.00  0.90  0.00
  GQ76                    1.00   0.03  0.00  0.00  0.00  0.97  0.00  0.00  0.22  0.00
  GQ77                    1.00   0.03  0.97  0.00  0.00  0.00  0.00  0.00  0.00  0.00
  GQ78                    1.00   0.03  0.00  0.00  0.89  0.08  0.00  0.00  0.61  0.00
  GQ79                    1.00   0.03  0.00  0.00  0.97  0.00  0.00  0.00  0.22  0.00
  GQ80                    1.00   0.03  0.00  0.00  0.97  0.00  0.00  0.00  0.40  0.00
  GQ81                    1.00   0.03  0.00  0.00  0.97  0.00  0.00  0.00  0.00  0.00
  GQ82                    1.00   0.03  0.00  0.00  0.64  0.33  0.00  0.00  0.90  0.00
  GQ83                    1.00   0.03  0.00  0.00  0.02  0.95  0.00  0.00  0.89  0.00
  GQ84                    1.00   0.03  0.00  0.00  0.23  0.74  0.00  0.00  0.79  0.00
  GQ85                    1.00   0.03  0.00  0.00  0.97  0.00  0.00  0.00  0.40  0.00
  GQ86                    1.00   0.03  0.00  0.00  0.97  0.00  0.00  0.00  0.90  0.00
  GQ87                    1.00   0.03  0.00  0.00  0.97  0.00  0.00  0.00  0.90  0.00
  GQ88                    1.00   0.03  0.00  0.00  0.81  0.17  0.00  0.00  0.90  0.00
  GQ89                    1.00   0.03  0.00  0.00  0.97  0.00  0.00  0.00  0.90  0.00
  GQ90                    1.00   0.03  0.00  0.00  0.94  0.03  0.00  0.00  0.90  0.00
  GQ91                    1.00   0.03  0.00  0.00  0.97  0.01  0.00  0.00  0.82  0.00
  GQ92                    1.00   0.03  0.00  0.00  0.89  0.08  0.00  0.00  0.04  0.00
  GQ93                    1.00   0.03  0.00  0.00  0.97  0.00  0.00  0.00  0.71  0.00
  GQ94                    1.00   0.03  0.00  0.00  0.66  0.32  0.00  0.00  0.03  0.00
  GQ95                    1.00   0.03  0.00  0.00  0.97  0.00  0.00  0.00  0.90  0.00
  GQ96                    1.00   0.03  0.00  0.00  0.97  0.00  0.00  0.00  0.26  0.00
  GQ97                    1.00   0.03  0.00  0.00  0.03  0.95  0.00  0.00  0.35  0.00
  GQ98                    1.00   0.03  0.00  0.00  0.97  0.00  0.00  0.00  0.60  0.00
  GQ99                    1.00   0.03  0.00  0.00  0.97  0.01  0.00  0.00  0.90  0.00
  GQ100                   1.00   0.03  0.00  0.00  0.03  0.94  0.00  0.00  0.00  0.00
  GQ101                   1.00   0.03  0.00  0.00  0.96  0.01  0.00  0.00  0.90  0.00
  GQ102                   1.00   0.03  0.00  0.00  0.55  0.42  0.00  0.00  0.90  0.00
  GQ103                   1.00   0.03  0.00  0.00  0.97  0.00  0.00  0.00  0.76  0.00
  GQ104                   1.00   0.03  0.00  0.00  0.41  0.57  0.00  0.00  0.83  0.00
  GQ105                   1.00   0.03  0.00  0.00  0.97  0.00  0.00  0.00  0.21  0.00
  GQ106                   1.00   0.03  0.00  0.00  0.96  0.01  0.00  0.00  0.90  0.00
  GQ107                   1.00   0.03  0.00  0.00  0.58  0.39  0.00  0.00  0.67  0.00
  GQ108                   1.00   0.03  0.00  0.00  0.97  0.00  0.00  0.00  0.23  0.00
  GQ109                   1.00   0.03  0.00  0.00  0.91  0.06  0.00  0.00  0.84  0.00
  GQ110                   1.00   0.03  0.00  0.00  0.97  0.01  0.00  0.00  0.90  0.00
  GQ111                   1.00   0.03  0.00  0.00  0.97  0.01  0.00  0.00  0.81  0.00
  GQ112                   1.00   0.03  0.00  0.00  0.03  0.95  0.00  0.00  0.88  0.00
  GQ113                   1.00   0.03  0.00  0.00  0.00  0.97  0.00  0.00  0.87  0.00
  GQ114                   1.00   0.03  0.00  0.00  0.97  0.00  0.00  0.00  0.22  0.00
  GQ115                   1.00   0.03  0.00  0.00  0.95  0.02  0.00  0.00  0.90  0.00
  GQ116                   1.00   0.03  0.00  0.00  0.97  0.00  0.00  0.00  0.90  0.00
  GQ117                   1.00   0.03  0.00  0.00  0.00  0.97  0.00  0.00  0.00  0.00
  GQ118                   1.00   0.03  0.00  0.00  0.21  0.77  0.00  0.00  0.90  0.00
  GQ119                   1.00   0.03  0.00  0.00  0.68  0.29  0.00  0.00  0.61  0.00
  GQ120                   1.00   0.03  0.08  0.00  0.89  0.00  0.00  0.00  0.00  0.00
  GQ121                   1.00   0.03  0.00  0.00  0.97  0.00  0.00  0.00  0.22  0.00
  GQ122                   1.00   0.03  0.01  0.00  0.91  0.05  0.00  0.00  0.89  0.00
  GQ123                   1.00   0.03  0.00  0.00  0.75  0.22  0.00  0.00  0.90  0.00
  GQ124                   1.00   0.03  0.01  0.00  0.95  0.01  0.00  0.00  0.90  0.00
  GQ125                   1.00   0.03  0.00  0.00  0.96  0.01  0.00  0.00  0.80  0.00
  GQ126                   1.00   0.03  0.00  0.00  0.77  0.20  0.00  0.00  0.90  0.00
  GQ127                   1.00   0.03  0.00  0.00  0.97  0.00  0.00  0.00  0.49  0.00
  GQ128                   1.00   0.03  0.00  0.00  0.46  0.51  0.00  0.00  0.81  0.00
  GQ129                   1.00   0.03  0.00  0.00  0.97  0.00  0.00  0.00  0.37  0.00
  GQ130                   1.00   0.03  0.00  0.00  0.88  0.09  0.00  0.00  0.38  0.00
  GQ131                   1.00   0.03  0.00  0.00  0.78  0.19  0.00  0.00  0.64  0.00
  
  
  *************************
  Conduit Surcharge Summary
  *************************
  
  ----------------------------------------------------------------------------
                                                           Hours        Hours 
                         --------- Hours Full --------   Above Full   Capacity
  Conduit                Both Ends  Upstream  Dnstream   Normal Flow   Limited
  ----------------------------------------------------------------------------
  GQ1                         0.01      0.48      0.01      0.01         0.01
  GQ4                         4.98      4.98      6.70      0.01         0.01
  GQ5                         1.93      1.93      6.65      0.01         0.01
  GQ6                         0.01      0.01      1.93      0.01         0.01
  GQ7                         2.89      2.89      4.65      0.01         0.01
  GQ8                         0.01      0.01      2.89      0.01         0.01
  GQ9                         0.01      0.01      6.83      0.01         0.01
  GQ10                        5.08      5.08      6.88      0.06         0.01
  GQ12                        0.01      0.01      6.61      0.01         0.01
  GQ13                        0.01      0.01      4.70      0.01         0.01
  GQ16                        0.01      0.48      0.01      0.01         0.01
  GQ18                        0.01      0.01      6.62      6.64         0.01
  GQ20                        0.01      0.01      1.27      0.01         0.01
  GQ21                        0.01      0.01      1.27      0.01         0.01
  GQ23                        0.01      0.01      0.39      0.01         0.01
  GQ24                        0.56      0.56      6.76      0.01         0.01
  GQ25                        0.01      0.71      0.01      0.75         0.01
  GQ26                        0.01      0.01      0.87      0.01         0.01
  GQ27                        0.87      0.87      6.62      0.01         0.01
  GQ28                        0.01      0.01      6.66      0.01         0.01
  GQ29                        6.54      6.54      6.66      0.01         0.01
  GQ30                        6.62      6.62      6.71      0.01         0.01
  GQ31                        0.71      0.71      6.93      0.01         0.01
  GQ32                        0.01      2.18      0.01      2.08         0.01
  GQ33                        2.18      2.18      6.93      0.01         0.01
  GQ34                        0.01      0.01      2.18      0.01         0.01
  GQ35                        2.07      2.07      2.18      0.08         0.01
  GQ36                        2.06      2.07      2.09      2.23         2.06
  GQ37                        0.01      0.01      6.81      0.01         0.01
  GQ38                        0.01      0.01      6.81      0.01         0.01
  GQ39                        1.21      1.21      6.61      0.01         0.01
  GQ40                        0.01      0.01      1.21      0.01         0.01
  GQ41                        0.48      0.48      6.66      0.01         0.01
  GQ42                        2.78      2.78      6.69      0.01         0.01
  GQ43                        2.21      2.21      2.78      0.15         0.01
  GQ44                        4.90      4.90      6.62      0.01         0.01
  GQ45                        0.01      0.01      3.68      0.01         0.01
  GQ46                        3.68      3.68      4.90      0.01         0.01
  GQ47                        0.01      0.01      6.73      0.01         0.01
  GQ48                        0.01      0.01      6.76      0.01         0.01
  GQ49                        0.01      0.01      6.76      0.01         0.01
  GQ50                        0.01      0.01      1.13      0.01         0.01
  GQ51                        0.48      1.13      0.48      1.27         0.48
  GQ52                        0.22      0.22      6.54      0.01         0.01
  GQ53                        2.70      2.70      6.69      0.01         0.01
  GQ54                        0.01      0.01      6.77      0.01         0.01
  GQ55                        0.01      0.01      6.77      0.01         0.01
  GQ56                        2.60      2.64      2.89      0.33         0.13
  GQ57                        0.01      0.01      2.64      0.01         0.01
  GQ58                        0.01      0.01      6.62      0.01         0.01
  GQ59                        2.78      2.78      6.62      0.01         0.01
  GQ60                        1.93      1.93      3.55      0.01         0.01
  GQ61                        0.01      0.01      6.39      0.01         0.01
  GQ62                        0.01      0.01      6.43      0.01         0.01
  GQ63                        0.01      0.01      6.45      0.01         0.01
  GQ66                        0.01      0.01      6.48      0.01         0.01
  GQ67                        6.40      6.40      6.44      0.01         0.01
  GQ68                        0.01      0.01      6.56      0.01         0.01
  GQ69                        0.01      0.01      6.72      0.01         0.01
  GQ75                        0.01      0.01      6.56      0.01         0.01
  GQ78                        2.15      2.15      6.79      0.01         0.01
  GQ79                        0.01      0.01      6.79      0.01         0.01
  GQ80                        2.15      2.15      6.70      0.01         0.01
  GQ81                        6.61      6.70      6.61      6.73         1.79
  GQ82                        0.01      0.01      6.61      0.01         0.01
  GQ83                        0.01      0.01      0.78      0.01         0.01
  GQ84                        0.92      0.92      2.88      0.08         0.01
  GQ85                        0.92      0.92      6.95      0.01         0.01
  GQ86                        0.01      0.01      6.75      0.01         0.01
  GQ87                        0.01      0.01      6.75      0.01         0.01
  GQ88                        0.01      0.01      6.75      0.01         0.01
  GQ89                        0.01      0.01      6.61      0.01         0.01
  GQ90                        0.01      0.01      6.54      0.01         0.01
  GQ91                        0.01      0.01      6.65      0.01         0.01
  GQ92                        0.98      0.98      1.20      0.86         0.82
  GQ93                        1.20      1.20      2.13      0.01         0.01
  GQ94                        2.13      2.13      2.21      2.25         1.99
  GQ95                        0.01      0.01      6.81      0.01         0.01
  GQ96                        0.94      0.94      0.98      0.98         0.83
  GQ98                        0.01      0.01      6.71      0.01         0.01
  GQ99                        0.01      0.01      6.45      0.01         0.01
  GQ101                       0.01      0.01      6.65      0.01         0.01
  GQ102                       0.01      0.01      6.68      0.01         0.01
  GQ103                       0.17      0.17      6.73      0.01         0.01
  GQ104                       0.01      0.01      6.73      0.01         0.01
  GQ105                       6.65      6.65      6.68      6.24         0.01
  GQ106                       0.01      0.01      6.66      0.01         0.01
  GQ107                       1.21      1.21      6.66      0.01         0.01
  GQ108                       6.57      6.57      6.65      0.01         0.01
  GQ109                       0.01      0.01      1.21      0.01         0.01
  GQ110                       0.01      0.01      6.56      0.01         0.01
  GQ111                       0.01      0.01      6.65      0.01         0.01
  GQ114                       0.01      0.01      6.77      0.01         0.01
  GQ116                       0.01      0.01      6.75      0.01         0.01
  GQ119                       2.46      2.46      6.74      0.01         0.01
  GQ120                       0.01      0.01      6.71      0.01         0.01
  GQ121                       6.66      6.66      6.74      0.01         0.01
  GQ122                       0.01      0.01      6.66      0.01         0.01
  GQ123                       0.01      0.01      6.67      0.01         0.01
  GQ125                       0.01      0.01      6.65      0.01         0.01
  GQ126                       0.01      0.01      6.65      0.01         0.01
  GQ127                       2.21      2.21      2.46      0.02         0.03
  GQ128                       0.01      0.01      2.14      0.01         0.01
  GQ129                       4.65      4.65      6.76      0.01         0.01
  GQ130                       4.86      4.86      7.19      0.01         0.01
  GQ131                       1.13      1.13      6.94      0.01         0.01
  

  Analysis begun on:  Wed Mar 29 19:12:07 2023
  Analysis ended on:  Wed Mar 29 19:12:26 2023
  Total elapsed time: 00:00:19