
  OWA STORM WATER MANAGEMENT MODEL - VERSION v5.1.14 (OWA 2022-07-31)
  --------------------------------------------------------------

  INP file created by DSDAConvertToSwmmTools 
  version 0.0.1 EcoVista 
  Title/Notes: 
  
  
  *********************************************************
  NOTE: The summary statistics displayed in this report are
  based on results found at every computational time step,  
  not just on results from each reporting time step.
  *********************************************************
  
  ****************
  Analysis Options
  ****************
  Flow Units ............... CMS
  Process Models:
    Rainfall/Runoff ........ YES
    RDII ................... NO
    Snowmelt ............... NO
    Groundwater ............ NO
    Flow Routing ........... YES
    Ponding Allowed ........ NO
    Water Quality .......... NO
  Infiltration Method ...... GREEN_AMPT
  Flow Routing Method ...... DYNWAVE
  Surcharge Method ......... EXTRAN
  Starting Date ............ 07/15/2020 00:00:00
  Ending Date .............. 07/15/2020 12:00:00
  Antecedent Dry Days ...... 0.0
  Report Time Step ......... 00:30:00
  Wet Time Step ............ 00:05:00
  Dry Time Step ............ 01:00:00
  Routing Time Step ........ 30.00 sec
  Variable Time Step ....... YES
  Maximum Trials ........... 8
  Number of Threads ........ 1
  Head Tolerance ........... 0.001500 m
  
  
  **************************        Volume         Depth
  Runoff Quantity Continuity     hectare-m            mm
  **************************     ---------       -------
  Total Precipitation ......       189.035        47.300
  Evaporation Loss .........         4.129         1.033
  Infiltration Loss ........        50.519        12.641
  Surface Runoff ...........       127.947        32.015
  Final Storage ............         6.626         1.658
  Continuity Error (%) .....        -0.099
  
  
  **************************        Volume        Volume
  Flow Routing Continuity        hectare-m      10^6 ltr
  **************************     ---------     ---------
  Dry Weather Inflow .......         0.000         0.000
  Wet Weather Inflow .......       127.893      1278.946
  Groundwater Inflow .......         0.000         0.000
  RDII Inflow ..............         0.000         0.000
  External Inflow ..........         0.000         0.000
  External Outflow .........        11.532       115.321
  Flooding Loss ............       115.075      1150.758
  Evaporation Loss .........         0.000         0.000
  Exfiltration Loss ........         0.000         0.000
  Initial Stored Volume ....         0.000         0.000
  Final Stored Volume ......         1.170        11.701
  Continuity Error (%) .....         0.091
  
  
  *************************
  Highest Continuity Errors
  *************************
  Node jd51 (4.28%)
  Node jd64 (3.42%)
  Node jd59 (3.37%)
  Node jd31 (3.16%)
  Node jd41 (2.74%)
  
  
  ***************************
  Time-Step Critical Elements
  ***************************
  Link GQ73 (97.64%)
  
  
  ********************************
  Highest Flow Instability Indexes
  ********************************
  Link GQ67 (25)
  Link GQ29 (7)
  Link GQ94 (6)
  Link GQ114 (5)
  Link GQ46 (5)
  
  
  *************************
  Routing Time Step Summary
  *************************
  Minimum Time Step           :     2.16 sec
  Average Time Step           :     7.54 sec
  Maximum Time Step           :    30.00 sec
  Percent in Steady State     :     0.00
  Average Iterations per Step :     4.23
  Percent Not Converging      :    15.19
  
  
  ***************************
  Subcatchment Runoff Summary
  ***************************
  
  ------------------------------------------------------------------------------------------------------------------------------
                            Total      Total      Total      Total     Imperv       Perv      Total       Total     Peak  Runoff
                           Precip      Runon       Evap      Infil     Runoff     Runoff     Runoff      Runoff   Runoff   Coeff
  Subcatchment                 mm         mm         mm         mm         mm         mm         mm    10^6 ltr      CMS
  ------------------------------------------------------------------------------------------------------------------------------
  1                         47.30       0.00       0.62      26.50      19.34       0.00      19.34        7.66     0.84   0.409
  2                         47.30       0.00       1.11      10.07      34.27       0.00      34.27       30.99     3.35   0.724
  3                         47.30       0.00       1.15       8.63      35.73       0.00      35.73       14.30     1.57   0.755
  4                         47.30       0.00       1.19       7.41      36.94       0.00      36.94        3.10     0.34   0.781
  5                         47.30       0.00       1.05      12.05      32.67       0.00      32.67        4.04     0.44   0.691
  6                         47.30       0.00       1.01      13.56      31.30       0.00      31.30        2.91     0.32   0.662
  7                         47.30       0.00       1.05      12.10      32.47       0.00      32.47       14.16     1.54   0.687
  8                         47.30       0.00       1.33       2.65      41.23       0.00      41.23        5.74     0.63   0.872
  9                         47.30       0.00       1.37       1.32      42.47       0.00      42.47        4.97     0.55   0.898
  10                        47.30       0.00       1.18       7.69      36.61       0.00      36.61        8.25     0.91   0.774
  11                        47.30       0.00       1.28       4.52      39.48       0.00      39.48       19.57     2.15   0.835
  12                        47.30       0.00       1.00      13.60      31.17       0.00      31.17       15.21     1.67   0.659
  13                        47.30       0.00       1.26       5.10      38.96       0.00      38.96       17.62     1.94   0.824
  14                        47.30       0.00       1.26       5.16      38.97       0.00      38.97        7.35     0.81   0.824
  15                        47.30       0.00       1.16       8.32      36.02       0.00      36.02       12.18     1.34   0.762
  16                        47.30       0.00       1.21       6.87      37.33       0.00      37.33       11.03     1.21   0.789
  17                        47.30       0.00       1.13       9.44      34.98       0.00      34.98       14.64     1.61   0.740
  18                        47.30       0.00       1.30       3.72      40.21       0.00      40.21       16.60     1.82   0.850
  19                        47.30       0.00       1.29       3.89      40.04       0.00      40.04        9.00     0.99   0.846
  20                        47.30       0.00       1.29       4.15      39.70       0.00      39.70       21.30     2.31   0.839
  21                        47.30       0.00       1.37       1.39      42.34       0.00      42.34       13.28     1.46   0.895
  22                        47.30       0.00       1.34       2.23      41.54       0.00      41.54        5.11     0.56   0.878
  23                        47.30       0.00       1.24       5.79      38.28       0.00      38.28       21.91     2.40   0.809
  24                        47.30       0.00       1.19       7.22      36.94       0.00      36.94        6.55     0.72   0.781
  25                        47.30       0.00       1.28       4.44      39.61       0.00      39.61        8.02     0.88   0.837
  26                        47.30       0.00       1.09      10.79      33.63       0.00      33.63       11.80     1.28   0.711
  27                        47.30       0.00       1.30       3.54      40.26       0.00      40.26       17.02     1.85   0.851
  28                        47.30       0.00       1.33       2.61      41.17       0.00      41.17       19.46     2.13   0.870
  29                        47.30       0.00       1.19       7.34      36.97       0.00      36.97        8.63     0.95   0.782
  30                        47.30       0.00       1.36       1.60      42.29       0.00      42.29        3.03     0.33   0.894
  31                        47.30       0.00       1.38       0.99      42.73       0.00      42.73        9.42     1.04   0.903
  32                        47.30       0.00       1.35       2.11      41.69       0.00      41.69       18.01     1.98   0.881
  33                        47.30       0.00       1.36       1.54      42.19       0.00      42.19       14.86     1.63   0.892
  34                        47.30       0.00       1.27       4.79      39.24       0.00      39.24       11.50     1.26   0.830
  35                        47.30       0.00       1.30       3.57      40.35       0.00      40.35       16.74     1.84   0.853
  36                        47.30       0.00       1.07      11.27      33.35       0.00      33.35       13.12     1.44   0.705
  37                        47.30       0.00       1.33       2.55      41.28       0.00      41.28        9.16     1.01   0.873
  38                        47.30       0.00       1.25       5.35      38.74       0.00      38.74       14.78     1.63   0.819
  39                        47.30       0.00       1.13       9.41      35.04       0.00      35.04       14.80     1.63   0.741
  40                        47.30       0.00       1.26       5.12      38.95       0.00      38.95        8.91     0.98   0.824
  41                        47.30       0.00       1.29       4.16      39.87       0.00      39.87        7.86     0.87   0.843
  42                        47.30       0.00       1.28       4.20      39.68       0.00      39.68        9.80     1.07   0.839
  43                        47.30       0.00       1.08      11.06      33.45       0.00      33.45       26.44     2.88   0.707
  44                        47.30       0.00       1.15       8.62      35.66       0.00      35.66       17.24     1.88   0.754
  45                        47.30       0.00       1.08      10.97      33.56       0.00      33.56       24.29     2.65   0.710
  46                        47.30       0.00       1.05      12.22      32.50       0.00      32.50       16.25     1.79   0.687
  47                        47.30       0.00       1.10      10.46      34.03       0.00      34.03       39.67     4.34   0.719
  48                        47.30       0.00       1.31       3.27      40.49       0.00      40.49       23.50     2.55   0.856
  49                        47.30       0.00       1.20       7.01      37.08       0.00      37.08       25.10     2.72   0.784
  50                        47.30       0.00       1.33       2.66      40.95       0.00      40.95       16.10     1.72   0.866
  51                        47.30       0.00       1.27       4.59      39.22       0.00      39.22        7.34     0.79   0.829
  52                        47.30       0.00       0.62      26.53      19.33       0.00      19.33       19.84     2.17   0.409
  53                        47.30       0.00       0.90      17.22      27.92       0.00      27.92       29.74     3.26   0.590
  54                        47.30       0.00       1.11      10.19      34.31       0.00      34.31        8.37     0.92   0.725
  55                        47.30       0.00       0.63      26.05      19.77       0.00      19.77       15.60     1.71   0.418
  56                        47.30       0.00       0.24      39.29       7.54       0.00       7.54        6.14     0.67   0.159
  57                        47.30       0.00       1.25       5.27      38.68       0.00      38.68       32.14     3.49   0.818
  58                        47.30       0.00       1.16       8.36      35.98       0.00      35.98        5.92     0.65   0.761
  59                        47.30       0.00       1.13       9.29      35.21       0.00      35.21        4.48     0.49   0.744
  60                        47.30       0.00       0.42      33.05      13.32       0.00      13.32        3.81     0.42   0.282
  61                        47.30       0.00       0.66      25.14      20.52       0.00      20.52        7.73     0.85   0.434
  62                        47.30       0.00       0.92      16.46      28.51       0.00      28.51       33.41     3.64   0.603
  63                        47.30       0.00       1.25       5.21      38.66       0.00      38.66       74.76     8.02   0.817
  64                        47.30       0.00       0.94      15.90      29.13       0.00      29.13        6.25     0.68   0.616
  65                        47.30       0.00       1.27       4.61      39.22       0.00      39.22       26.38     2.84   0.829
  66                        47.30       0.00       1.00      13.68      31.02       0.00      31.02        7.90     0.86   0.656
  67                        47.30       0.00       0.94      15.88      29.19       0.00      29.19        9.44     1.03   0.617
  68                        47.30       0.00       1.12       9.61      34.86       0.00      34.86        3.87     0.43   0.737
  69                        47.30       0.00       0.66      25.18      20.67       0.00      20.67        6.61     0.72   0.437
  70                        47.30       0.00       0.93      16.17      28.80       0.00      28.80       23.69     2.60   0.609
  71                        47.30       0.00       1.15       8.84      35.56       0.00      35.56        4.36     0.48   0.752
  72                        47.30       0.00       1.21       6.75      37.48       0.00      37.48        4.67     0.51   0.792
  73                        47.30       0.00       1.10      10.56      34.03       0.00      34.03        5.65     0.62   0.719
  74                        47.30       0.00       1.04      12.28      32.44       0.00      32.44        6.98     0.77   0.686
  75                        47.30       0.00       1.16       8.38      35.99       0.00      35.99        5.19     0.57   0.761
  76                        47.30       0.00       1.22       6.35      37.87       0.00      37.87        3.67     0.40   0.801
  77                        47.30       0.00       1.30       3.64      40.32       0.00      40.32        4.36     0.48   0.852
  78                        47.30       0.00       1.26       5.18      38.90       0.00      38.90        4.27     0.47   0.822
  79                        47.30       0.00       0.55      28.82      17.24       0.00      17.24       18.28     2.00   0.364
  80                        47.30       0.00       1.04      12.48      32.13       0.00      32.13       20.11     2.20   0.679
  81                        47.30       0.00       1.05      11.93      32.64       0.00      32.64       14.23     1.55   0.690
  82                        47.30       0.00       1.01      13.43      31.27       0.00      31.27       28.67     3.13   0.661
  83                        47.30       0.00       1.26       4.96      39.14       0.00      39.14        4.78     0.53   0.827
  84                        47.30       0.00       1.19       7.35      36.91       0.00      36.91        4.41     0.48   0.780
  85                        47.30       0.00       1.40       0.36      43.37       0.00      43.37        4.03     0.45   0.917
  86                        47.30       0.00       1.29       3.99      39.99       0.00      39.99        5.89     0.65   0.846
  87                        47.30       0.00       1.38       1.01      42.68       0.00      42.68        5.61     0.62   0.902
  88                        47.30       0.00       1.23       5.90      38.28       0.00      38.28        3.67     0.40   0.809
  89                        47.30       0.00       1.30       3.80      40.19       0.00      40.19        7.74     0.85   0.850
  90                        47.30       0.00       1.41       0.01      43.73       0.00      43.73        0.50     0.06   0.925
  91                        47.30       0.00       1.17       7.93      36.25       0.00      36.25        7.90     0.86   0.766
  92                        47.30       0.00       1.30       3.68      40.29       0.00      40.29        5.04     0.55   0.852
  93                        47.30       0.00       1.06      11.75      32.87       0.00      32.87       16.82     1.85   0.695
  94                        47.30       0.00       0.95      15.32      29.74       0.00      29.74        2.08     0.23   0.629
  95                        47.30       0.00       1.41       0.05      43.64       0.00      43.64        0.95     0.11   0.923
  96                        47.30       0.00       1.14       9.16      35.28       0.00      35.28        4.31     0.47   0.746
  97                        47.30       0.00       1.38       1.00      42.75       0.00      42.75        4.25     0.47   0.904
  98                        47.30       0.00       1.14       8.94      35.50       0.00      35.50        4.38     0.48   0.751
  99                        47.30       0.00       0.57      28.30      17.75       0.00      17.75        6.59     0.72   0.375
  100                       47.30       0.00       0.63      26.18      19.72       0.00      19.72        5.06     0.55   0.417
  101                       47.30       0.00       0.65      25.66      20.18       0.00      20.18        9.89     1.08   0.427
  102                       47.30       0.00       1.05      12.03      32.63       0.00      32.63        7.96     0.87   0.690
  103                       47.30       0.00       0.35      35.51      11.06       0.00      11.06        4.02     0.44   0.234
  104                       47.30       0.00       0.24      39.32       7.47       0.00       7.47        7.24     0.79   0.158
  105                       47.30       0.00       1.16       8.40      36.00       0.00      36.00        4.71     0.52   0.761
  106                       47.30       0.00       0.63      26.23      19.64       0.00      19.64        4.79     0.52   0.415
  
  
  ******************
  Node Depth Summary
  ******************
  
  ---------------------------------------------------------------------------------
                                 Average  Maximum  Maximum  Time of Max    Reported
                                   Depth    Depth      HGL   Occurrence   Max Depth
  Node                 Type       Meters   Meters   Meters  days hr:min      Meters
  ---------------------------------------------------------------------------------
  jd1                  JUNCTION     0.12     0.23   273.23     0  02:00        0.23
  jd2                  JUNCTION     0.84     3.00   270.00     0  01:29        3.00
  jd3                  JUNCTION     2.89     3.00   266.00     0  01:18        3.00
  jd4                  JUNCTION     1.67     3.00   270.00     0  01:22        3.00
  jd5                  JUNCTION     0.09     0.17   274.17     0  02:00        0.17
  jd6                  JUNCTION     0.11     0.22   275.22     0  02:00        0.22
  jd7                  JUNCTION     0.34     0.58   264.68     0  02:00        0.58
  jd8                  JUNCTION     2.01     3.00   267.00     0  01:18        3.00
  jd9                  JUNCTION     1.70     3.00   268.00     0  01:19        3.00
  jd10                 JUNCTION     2.91     3.00   273.00     0  01:14        3.00
  jd11                 JUNCTION     0.10     0.19   282.19     0  02:00        0.19
  jd12                 JUNCTION     2.91     3.00   272.00     0  01:14        3.00
  jd13                 JUNCTION     0.12     0.25   289.25     0  02:00        0.25
  jd14                 JUNCTION     0.67     3.00   283.00     0  01:28        3.00
  jd15                 JUNCTION     0.28     0.63   278.63     0  02:00        0.63
  jd16                 JUNCTION     0.31     0.69   274.69     0  02:00        0.69
  jd17                 JUNCTION     2.33     3.00   278.80     0  01:20        3.00
  jd18                 JUNCTION     0.79     3.00   282.00     0  01:32        3.00
  jd19                 JUNCTION     1.30     3.00   270.00     0  01:20        3.00
  jd20                 JUNCTION     0.21     0.39   273.39     0  02:00        0.39
  jd21                 JUNCTION     2.90     3.00   273.00     0  01:18        3.00
  jd22                 JUNCTION     1.82     3.00   275.00     0  01:19        3.00
  jd23                 JUNCTION     0.36     3.00   281.00     0  01:43        2.66
  jd24                 JUNCTION     0.14     0.29   285.29     0  02:00        0.29
  jd25                 JUNCTION     0.29     3.00   282.00     0  01:53        2.03
  jd26                 JUNCTION     0.84     3.00   288.00     0  01:28        3.00
  jd27                 JUNCTION     0.24     3.00   294.00     0  01:56        1.50
  jd28                 JUNCTION     2.91     3.00   290.00     0  01:13        3.00
  jd29                 JUNCTION     0.10     0.20   299.20     0  02:00        0.20
  jd30                 JUNCTION     0.13     0.26   290.26     0  02:00        0.26
  jd31                 JUNCTION     1.13     3.00   275.00     0  01:23        1.99
  jd32                 JUNCTION     2.91     3.00   275.00     0  01:15        3.00
  jd33                 JUNCTION     0.19     0.42   289.42     0  02:00        0.42
  jd34                 JUNCTION     0.41     3.00   297.00     0  01:30        2.95
  jd35                 JUNCTION     2.92     3.00   292.00     0  01:12        3.00
  jd36                 JUNCTION     0.91     3.00   302.00     0  01:26        3.00
  jd37                 JUNCTION     0.90     3.00   306.00     0  01:24        3.00
  jd38                 JUNCTION     0.45     3.00   300.00     0  01:43        1.81
  jd39                 JUNCTION     2.90     3.00   297.00     0  01:18        3.00
  jd40                 JUNCTION     1.14     3.00   302.00     0  01:27        3.00
  jd41                 JUNCTION     2.87     3.00   296.00     0  01:25        3.00
  jd42                 JUNCTION     0.20     0.43   305.43     0  02:00        0.43
  jd43                 JUNCTION     1.06     3.00   300.00     0  01:20        3.00
  jd44                 JUNCTION     1.08     3.00   286.00     0  01:25        3.00
  jd45                 JUNCTION     2.90     3.00   282.00     0  01:18        3.00
  jd46                 JUNCTION     0.33     3.00   278.00     0  01:57        2.31
  jd47                 JUNCTION     0.16     0.31   315.31     0  02:00        0.31
  jd48                 JUNCTION     0.11     0.23   325.23     0  02:00        0.23
  jd49                 JUNCTION     0.27     0.62   289.62     0  02:00        0.62
  jd50                 JUNCTION     2.91     3.00   278.00     0  01:13        3.00
  jd51                 JUNCTION     2.87     3.00   313.00     0  01:25        3.00
  jd52                 JUNCTION     0.71     3.00   326.00     0  01:31        2.01
  jd53                 JUNCTION     0.94     3.00   325.00     0  01:29        3.00
  jd54                 JUNCTION     0.29     0.63   326.63     0  02:00        0.63
  jd55                 JUNCTION     1.72     3.00   325.00     0  01:23        3.00
  jd56                 JUNCTION     0.19     0.43   327.43     0  02:00        0.43
  jd59                 JUNCTION     2.86     3.00   320.80     0  01:26        3.00
  jd60                 JUNCTION     2.91     3.00   319.00     0  01:14        3.00
  jd61                 JUNCTION     0.14     0.30   329.30     0  02:00        0.30
  jd62                 JUNCTION     0.06     0.13   335.13     0  02:00        0.13
  jd63                 JUNCTION     0.07     0.14   324.14     0  02:00        0.14
  jd64                 JUNCTION     2.69     3.00   321.00     0  01:25        2.94
  jd65                 JUNCTION     2.12     3.00   307.00     0  01:15        3.00
  jd66                 JUNCTION     2.91     3.00   304.00     0  01:15        3.00
  jd69                 JUNCTION     0.23     0.51   333.51     0  02:00        0.51
  jd79                 JUNCTION     2.81     3.00   274.00     0  01:14        3.00
  jd80                 JUNCTION     2.38     3.00   279.00     0  01:14        3.00
  jd81                 JUNCTION     0.15     0.31   288.31     0  02:00        0.31
  jd83                 JUNCTION     2.92     3.00   323.00     0  01:10        3.00
  jd84                 JUNCTION     0.51     3.00   326.00     0  01:24        3.00
  jd85                 JUNCTION     2.91     3.00   324.00     0  01:14        3.00
  jd87                 JUNCTION     2.91     3.00   322.00     0  01:14        3.00
  jd89                 JUNCTION     0.16     0.35   324.35     0  02:00        0.35
  jd90                 JUNCTION     0.14     0.29   328.29     0  02:00        0.29
  jd92                 JUNCTION     0.14     0.34   326.34     0  02:00        0.34
  jd93                 JUNCTION     0.96     3.00   327.00     0  01:27        3.00
  jd94                 JUNCTION     0.55     3.00   329.20     0  01:33        2.28
  jd95                 JUNCTION     0.61     3.00   330.00     0  01:33        2.83
  jd96                 JUNCTION     2.92     3.00   308.00     0  01:11        3.00
  jd97                 JUNCTION     0.62     3.00   330.20     0  01:33        3.00
  jd98                 JUNCTION     0.19     0.43   329.43     0  02:00        0.43
  jd99                 JUNCTION     2.91     3.00   327.00     0  01:15        3.00
  jd101                JUNCTION     0.11     0.22   321.22     0  02:00        0.22
  jd102                JUNCTION     0.31     3.00   327.00     0  01:41        1.85
  jd103                JUNCTION     0.11     0.23   318.23     0  02:00        0.23
  jd106                JUNCTION     2.89     3.00   287.00     0  01:20        3.00
  jd107                JUNCTION     0.21     0.44   332.44     0  02:00        0.44
  jd108                JUNCTION     1.19     3.00   329.00     0  01:13        1.55
  jd109                JUNCTION     0.16     0.36   343.36     0  02:00        0.36
  jd110                JUNCTION     2.91     3.00   327.00     0  01:13        3.00
  jd111                JUNCTION     0.07     0.14   344.14     0  02:00        0.14
  jd112                JUNCTION     0.09     0.19   334.19     0  02:00        0.19
  jd113                JUNCTION     0.10     0.21   348.21     0  02:00        0.21
  jd114                JUNCTION     2.90     3.00   317.00     0  01:17        3.00
  jd117                JUNCTION     1.39     3.00   319.00     0  01:19        3.00
  jd118                JUNCTION     0.09     0.19   330.19     0  02:00        0.19
  jd120                JUNCTION     0.16     0.40   327.40     0  02:00        0.40
  jd121                JUNCTION     0.16     0.35   320.35     0  02:00        0.35
  jd122                JUNCTION     2.90     3.00   276.00     0  01:17        3.00
  jd123                JUNCTION     2.89     3.00   276.20     0  01:19        3.00
  jd124                JUNCTION     2.92     3.00   271.00     0  01:09        3.00
  jd125                JUNCTION     1.45     3.00   278.00     0  01:22        3.00
  jd126                JUNCTION     2.92     3.00   275.00     0  01:11        3.00
  jd135                JUNCTION     0.14     0.32   289.32     0  02:00        0.32
  jd136                JUNCTION     0.26     0.59   341.59     0  02:00        0.59
  psk1                 OUTFALL      0.09     0.19   279.19     0  02:00        0.19
  psk2                 OUTFALL      0.13     0.26   270.26     0  02:00        0.26
  psk3                 OUTFALL      0.31     0.69   271.69     0  02:00        0.69
  psk4                 OUTFALL      0.00     0.00   280.00     0  00:00        0.00
  psk5                 OUTFALL      0.12     0.23   263.23     0  02:00        0.23
  psk6                 OUTFALL      0.09     0.17   259.17     0  02:00        0.17
  psk7                 OUTFALL      0.34     0.58   262.58     0  02:00        0.58
  psk8                 OUTFALL      0.00     0.00   317.00     0  00:00        0.00
  
  
  *******************
  Node Inflow Summary
  *******************
  
  -------------------------------------------------------------------------------------------------
                                  Maximum  Maximum                  Lateral       Total        Flow
                                  Lateral    Total  Time of Max      Inflow      Inflow     Balance
                                   Inflow   Inflow   Occurrence      Volume      Volume       Error
  Node                 Type           CMS      CMS  days hr:min    10^6 ltr    10^6 ltr     Percent
  -------------------------------------------------------------------------------------------------
  jd1                  JUNCTION     0.837    1.174     0  02:00        7.65        12.1       0.005
  jd2                  JUNCTION     1.280    1.691     0  02:00        11.8          16       0.052
  jd3                  JUNCTION     1.544    3.262     0  02:00        14.2        41.4       0.954
  jd4                  JUNCTION     1.850    2.058     0  02:00          17          19       0.080
  jd5                  JUNCTION     0.548    0.889     0  02:00        4.97         8.5      -0.010
  jd6                  JUNCTION     0.632    0.632     0  02:00        5.74        5.74      -0.006
  jd7                  JUNCTION     0.320    2.648     0  02:00        2.91          38       0.058
  jd8                  JUNCTION     0.445    1.390     0  02:00        4.04        25.5       0.392
  jd9                  JUNCTION     0.341    1.409     0  02:00         3.1        23.9       0.016
  jd10                 JUNCTION     0.908    1.148     0  02:00        8.24        10.5       0.950
  jd11                 JUNCTION     1.340    1.340     0  02:00        12.2        12.2      -0.049
  jd12                 JUNCTION     1.007    2.219     0  02:00        9.16          20       0.686
  jd13                 JUNCTION     1.825    1.825     0  02:00        16.6        16.6      -0.012
  jd14                 JUNCTION     2.130    2.410     0  02:00        19.5        21.9       0.047
  jd15                 JUNCTION     0.883    1.853     0  02:00        8.02        17.9       0.186
  jd16                 JUNCTION     0.950    3.771     0  02:00        8.63          34       0.056
  jd17                 JUNCTION     1.980    4.041     0  02:00          18        44.8       0.744
  jd18                 JUNCTION     1.574    2.300     0  02:00        14.3        20.8       0.074
  jd19                 JUNCTION     1.462    2.603     0  02:00        13.3        26.7       0.039
  jd20                 JUNCTION     1.212    1.463     0  02:00          11        18.2       0.063
  jd21                 JUNCTION     0.561    3.207     0  02:00        5.11        38.3       0.867
  jd22                 JUNCTION     0.988    1.956     0  02:00           9        19.4       0.415
  jd23                 JUNCTION     0.979    2.928     0  02:00         8.9        25.5       0.004
  jd24                 JUNCTION     1.610    1.610     0  02:00        14.6        14.6      -0.028
  jd25                 JUNCTION     1.264    1.843     0  02:00        11.5        16.7       0.043
  jd26                 JUNCTION     1.841    2.894     0  02:00        16.7        27.4       0.029
  jd27                 JUNCTION     1.884    2.609     0  01:55        17.2        27.2       0.050
  jd28                 JUNCTION     2.550    3.300     0  02:00        23.5          32       0.408
  jd29                 JUNCTION     1.037    1.037     0  02:00        9.41        9.41      -0.055
  jd30                 JUNCTION     1.069    2.932     0  02:00         9.8        28.4       0.022
  jd31                 JUNCTION     0.716    1.547     0  01:21        6.55        14.1       3.258
  jd32                 JUNCTION     1.461    4.735     0  02:00        13.3        53.2       0.464
  jd33                 JUNCTION     1.441    2.483     0  02:00        13.1        22.2       0.006
  jd34                 JUNCTION     1.785    1.785     0  02:00        16.2        16.2      -0.005
  jd35                 JUNCTION     1.628    3.805     0  02:00        14.8        45.5       0.287
  jd36                 JUNCTION     2.723    3.741     0  02:00        25.1        38.9       0.050
  jd37                 JUNCTION     2.877    2.877     0  02:00        26.4        26.4       0.062
  jd38                 JUNCTION     2.655    3.538     0  02:00        24.3        37.8       0.067
  jd39                 JUNCTION     1.845    4.880     0  02:00        16.8        62.3       0.804
  jd40                 JUNCTION     3.127    5.317     0  02:00        28.7        62.5       0.046
  jd41                 JUNCTION     2.202    6.990     0  02:00        20.1        76.4       2.815
  jd42                 JUNCTION     2.844    3.123     0  02:00        26.4        28.9       0.084
  jd43                 JUNCTION     3.260    5.374     0  02:00        29.7        51.6       0.091
  jd44                 JUNCTION     4.339    7.027     0  02:00        39.7        84.1       0.044
  jd45                 JUNCTION     1.718    3.943     0  02:00        16.1        53.2       0.601
  jd46                 JUNCTION     0.787    0.787     0  02:00        7.34        7.34       0.103
  jd47                 JUNCTION     2.599    2.599     0  02:00        23.7        23.7      -0.187
  jd48                 JUNCTION     0.722    0.722     0  02:00        6.61        6.61      -0.074
  jd49                 JUNCTION     3.485    3.485     0  02:00        32.1        32.1       0.036
  jd50                 JUNCTION     3.644    7.339     0  02:00        33.4        89.2       0.476
  jd51                 JUNCTION     0.768    3.525     0  02:00        6.98        32.2       4.471
  jd52                 JUNCTION     1.552    5.207     0  01:31        14.2        43.3       0.044
  jd53                 JUNCTION     0.858    3.269     0  02:00         7.9        37.5       0.035
  jd54                 JUNCTION     0.468    2.325     0  02:00        4.24        21.2       0.053
  jd55                 JUNCTION     0.853    3.497     0  02:00        7.74          27       2.707
  jd56                 JUNCTION     0.519    1.517     0  02:00        4.71        13.7      -0.005
  jd59                 JUNCTION     0.514    2.549     0  02:00        4.67        22.8       3.485
  jd60                 JUNCTION     0.920    1.952     0  02:00        8.36        17.8       0.725
  jd61                 JUNCTION     1.032    1.160     0  02:00        9.43        10.6      -0.005
  jd62                 JUNCTION     0.416    0.416     0  02:00        3.81        3.81      -0.041
  jd63                 JUNCTION     0.571    0.571     0  02:00        5.18        5.18      -0.044
  jd64                 JUNCTION     0.481    1.187     0  02:00        4.36        10.8       3.545
  jd65                 JUNCTION     8.016    8.016     0  02:00        74.7        74.7       0.031
  jd66                 JUNCTION     1.078    3.131     0  02:00        9.88        28.7       1.120
  jd69                 JUNCTION     1.997    2.053     0  02:00        18.3        18.8      -0.025
  jd79                 JUNCTION     1.937    2.853     0  02:00        17.6        30.1       0.576
  jd80                 JUNCTION     2.150    2.758     0  02:00        19.6        26.4       0.170
  jd81                 JUNCTION     1.631    1.631     0  02:00        14.9        14.9      -0.011
  jd83                 JUNCTION     1.710    2.288     0  02:00        15.6        20.6       0.412
  jd84                 JUNCTION     2.173    2.173     0  02:00        19.8        19.8      -0.006
  jd85                 JUNCTION     0.494    0.808     0  02:00        4.48        7.36       1.169
  jd87                 JUNCTION     0.404    0.974     0  02:00        3.67        8.88       0.833
  jd89                 JUNCTION     0.470    0.470     0  02:00        4.27        4.27      -0.034
  jd90                 JUNCTION     0.480    0.480     0  02:00        4.36        4.36      -0.046
  jd92                 JUNCTION     0.404    0.404     0  02:00        3.66        3.66      -0.040
  jd93                 JUNCTION     0.862    1.818     0  02:00         7.9          17       0.074
  jd94                 JUNCTION     0.055    0.956     0  01:53       0.502         9.1      -0.051
  jd95                 JUNCTION     0.105    0.902     0  02:01       0.952        8.61       0.134
  jd96                 JUNCTION     0.789    1.051     0  02:00        7.24        9.62       0.980
  jd97                 JUNCTION     0.850    0.850     0  02:00        7.73        7.73       0.015
  jd98                 JUNCTION     0.475    0.475     0  02:00        4.31        4.31      -0.004
  jd99                 JUNCTION     0.229    0.517     0  02:00        2.08        6.14       0.932
  jd101                JUNCTION     0.622    1.240     0  02:00        5.65        11.3      -0.120
  jd102                JUNCTION     0.618    0.618     0  02:00        5.61        5.61       0.043
  jd103                JUNCTION     0.427    0.427     0  02:00        3.87        3.87      -0.031
  jd106                JUNCTION     0.334    1.919     0  02:00        3.03        17.7       2.234
  jd107                JUNCTION     0.482    1.583     0  02:00        4.37        14.4       0.048
  jd108                JUNCTION     0.524    0.524     0  02:00        4.79         4.8       1.364
  jd109                JUNCTION     0.875    0.875     0  02:00        7.95        7.95      -0.004
  jd110                JUNCTION     0.666    0.992     0  02:00        6.14        9.13       1.702
  jd111                JUNCTION     0.553    0.553     0  02:00        5.06        5.06      -0.068
  jd112                JUNCTION     0.649    1.805     0  02:00        5.89        16.5       0.002
  jd113                JUNCTION     0.437    0.437     0  02:00        4.02        4.02      -0.051
  jd114                JUNCTION     0.527    4.243     0  02:00        4.78        54.4       0.574
  jd117                JUNCTION     0.484    1.587     0  02:00         4.4        14.5       1.038
  jd118                JUNCTION     0.445    0.445     0  02:00        4.03        4.03      -0.027
  jd120                JUNCTION     0.555    0.555     0  02:00        5.03        5.03      -0.028
  jd121                JUNCTION     0.684    0.684     0  02:00        6.25        6.25      -0.017
  jd122                JUNCTION     1.625    5.684     0  01:54        14.8        62.6       0.891
  jd123                JUNCTION     1.672    4.074     0  02:00        15.2        58.9       1.150
  jd124                JUNCTION     2.399    3.472     0  02:00        21.9        47.3       0.119
  jd125                JUNCTION     2.314    3.989     0  02:00        21.3        56.6       0.005
  jd126                JUNCTION     3.348    4.210     0  02:00          31        42.1       0.244
  jd135                JUNCTION     0.867    0.867     0  02:00        7.86        7.86      -0.020
  jd136                JUNCTION     0.719    1.156     0  02:00        6.58        10.6       0.039
  psk1                 OUTFALL      0.000    0.872     0  02:00           0        7.87       0.000
  psk2                 OUTFALL      0.000    2.229     0  02:00           0        21.2       0.000
  psk3                 OUTFALL      0.000    3.766     0  02:00           0          34       0.000
  psk4                 OUTFALL      0.000    0.000     0  00:00           0           0       0.000 ltr
  psk5                 OUTFALL      0.000    0.762     0  02:00           0        7.85       0.000
  psk6                 OUTFALL      0.000    0.682     0  02:00           0        6.52       0.000
  psk7                 OUTFALL      0.000    2.647     0  02:00           0        37.9       0.000
  psk8                 OUTFALL      0.000    0.000     0  00:00           0           0       0.000 ltr
  
  
  **********************
  Node Surcharge Summary
  **********************
  
  Surcharging occurs when water rises above the top of the highest conduit.
  ---------------------------------------------------------------------
                                               Max. Height   Min. Depth
                                   Hours       Above Crown    Below Rim
  Node                 Type      Surcharged         Meters       Meters
  ---------------------------------------------------------------------
  jd2                  JUNCTION        1.61          2.200        0.000
  jd3                  JUNCTION       10.69          2.200        0.000
  jd4                  JUNCTION        4.59          2.200        0.000
  jd8                  JUNCTION        7.33          2.200        0.000
  jd9                  JUNCTION        5.41          2.200        0.000
  jd10                 JUNCTION       10.75          2.400        0.000
  jd12                 JUNCTION       10.76          2.400        0.000
  jd14                 JUNCTION        1.56          2.400        0.000
  jd17                 JUNCTION        7.81          2.200        0.000
  jd18                 JUNCTION        1.53          2.000        0.000
  jd19                 JUNCTION        3.80          2.200        0.000
  jd21                 JUNCTION       10.70          2.200        0.000
  jd22                 JUNCTION       10.68          2.400        0.000
  jd23                 JUNCTION        0.52          2.000        0.000
  jd25                 JUNCTION        0.18          2.000        0.000
  jd26                 JUNCTION        1.59          2.400        0.000
  jd27                 JUNCTION        0.15          2.400        0.000
  jd28                 JUNCTION       10.77          2.400        0.000
  jd31                 JUNCTION       10.61          2.200        0.000
  jd32                 JUNCTION       10.74          2.200        0.000
  jd34                 JUNCTION        0.63          2.400        0.000
  jd35                 JUNCTION       10.80          2.400        0.000
  jd36                 JUNCTION        1.73          2.400        0.000
  jd37                 JUNCTION        1.71          2.400        0.000
  jd38                 JUNCTION        0.45          2.000        0.000
  jd39                 JUNCTION       10.70          2.000        0.000
  jd40                 JUNCTION        2.52          2.200        0.000
  jd41                 JUNCTION       10.58          1.000        0.000
  jd43                 JUNCTION        1.85          2.200        0.000
  jd44                 JUNCTION        1.88          2.000        0.000
  jd45                 JUNCTION       10.70          2.000        0.000
  jd46                 JUNCTION        0.26          2.200        0.000
  jd50                 JUNCTION       10.77          2.200        0.000
  jd51                 JUNCTION       10.58          1.350        0.000
  jd52                 JUNCTION        1.61          1.500        0.000
  jd53                 JUNCTION        1.69          1.800        0.000
  jd55                 JUNCTION        3.07          1.500        0.000
  jd59                 JUNCTION       10.56          1.500        0.000
  jd60                 JUNCTION       10.77          2.400        0.000
  jd64                 JUNCTION       10.57          1.800        0.000
  jd65                 JUNCTION        6.15          2.400        0.000
  jd66                 JUNCTION       10.74          2.200        0.000
  jd79                 JUNCTION       10.77          2.400        0.000
  jd80                 JUNCTION        9.22          2.400        0.000
  jd83                 JUNCTION       10.84          2.400        0.000
  jd84                 JUNCTION        0.86          2.400        0.000
  jd85                 JUNCTION       10.77          2.400        0.000
  jd87                 JUNCTION       10.76          2.400        0.000
  jd93                 JUNCTION        1.80          2.200        0.000
  jd94                 JUNCTION        1.56          2.200        0.000
  jd95                 JUNCTION        1.52          2.200        0.000
  jd96                 JUNCTION       10.81          2.200        0.000
  jd97                 JUNCTION        1.53          2.200        0.000
  jd99                 JUNCTION       10.74          2.400        0.000
  jd102                JUNCTION        0.41          2.400        0.000
  jd106                JUNCTION       10.65          2.000        0.000
  jd108                JUNCTION       10.77          2.000        0.000
  jd110                JUNCTION       10.77          2.000        0.000
  jd114                JUNCTION       10.71          2.000        0.000
  jd117                JUNCTION       10.68          2.200        0.000
  jd122                JUNCTION       10.71          2.200        0.000
  jd123                JUNCTION       10.69          2.200        0.000
  jd124                JUNCTION       10.84          2.400        0.000
  jd125                JUNCTION        4.39          2.200        0.000
  jd126                JUNCTION       10.81          2.400        0.000
  
  
  *********************
  Node Flooding Summary
  *********************
  
  Flooding refers to all water that overflows a node, whether it ponds or not.
  --------------------------------------------------------------------------
                                                             Total   Maximum
                                 Maximum   Time of Max       Flood    Ponded
                        Hours       Rate    Occurrence      Volume     Depth
  Node                 Flooded       CMS   days hr:min    10^6 ltr    Meters
  --------------------------------------------------------------------------
  jd2                     0.87     0.482      0  02:00       0.880     0.000
  jd3                    10.69     3.262      0  02:00      40.982     0.000
  jd4                     3.27     1.547      0  02:00       6.907     0.000
  jd8                     2.71     0.680      0  01:18       1.451     0.000
  jd9                     1.85     0.951      0  01:19       2.478     0.000
  jd10                   10.75     1.148      0  02:00      10.374     0.000
  jd12                   10.76     2.219      0  02:00      19.829     0.000
  jd14                    0.69     0.577      0  02:00       0.906     0.000
  jd17                    5.18     3.212      0  02:00      20.021     0.000
  jd18                    0.80     0.886      0  01:32       1.490     0.000
  jd19                    1.78     1.535      0  02:00       5.837     0.000
  jd21                   10.69     3.207      0  02:00      37.708     0.000
  jd22                    1.84     1.132      0  02:00       4.477     0.000
  jd23                    0.01     0.291      0  01:43       0.002     0.000
  jd25                    0.01     0.215      0  01:53       0.001     0.000
  jd26                    1.30     0.998      0  02:00       2.145     0.000
  jd27                    0.01     0.177      0  01:56       0.001     0.000
  jd28                   10.77     3.299      0  02:00      31.832     0.000
  jd31                    0.01     1.353      0  01:23       0.017     0.000
  jd32                   10.74     4.735      0  02:00      52.911     0.000
  jd34                    0.01     0.116      0  01:30       0.001     0.000
  jd35                   10.80     3.805      0  02:00      45.335     0.000
  jd36                    1.64     1.627      0  02:00       5.378     0.000
  jd37                    1.65     1.454      0  02:00       4.323     0.000
  jd38                    0.01     0.329      0  01:43       0.003     0.000
  jd39                   10.70     4.880      0  02:00      61.786     0.000
  jd40                    1.89     2.755      0  02:00      12.399     0.000
  jd41                   10.58     6.990      0  02:00      74.285     0.000
  jd43                    1.82     3.543      0  02:00      15.652     0.000
  jd44                    1.72     3.126      0  02:00      11.683     0.000
  jd45                   10.70     3.943      0  02:00      52.881     0.000
  jd46                    0.01     0.146      0  01:57       0.003     0.000
  jd50                   10.77     7.339      0  02:00      88.768     0.000
  jd51                   10.58     3.525      0  02:00      30.786     0.000
  jd52                    0.01     2.949      0  01:31       0.080     0.000
  jd53                    0.76     1.114      0  01:29       1.956     0.000
  jd55                    1.61     3.497      0  02:00      12.950     0.000
  jd59                   10.56     2.549      0  02:00      22.014     0.000
  jd60                   10.77     1.952      0  02:00      17.686     0.000
  jd64                    0.02     0.464      0  01:25       0.012     0.000
  jd65                    5.96     6.922      0  02:00      42.487     0.000
  jd66                   10.74     3.131      0  02:00      28.347     0.000
  jd79                    7.28     2.603      0  02:00      22.765     0.000
  jd80                    6.53     2.600      0  02:00      20.118     0.000
  jd83                   10.84     2.288      0  02:00      20.495     0.000
  jd84                    0.67     0.333      0  02:00       0.633     0.000
  jd85                   10.77     0.808      0  02:00       7.279     0.000
  jd87                   10.76     0.974      0  02:00       8.806     0.000
  jd93                    1.12     0.630      0  02:00       1.288     0.000
  jd94                    0.01     0.523      0  01:33       0.007     0.000
  jd95                    0.01     0.044      0  01:33       0.001     0.000
  jd96                   10.81     1.051      0  02:00       9.527     0.000
  jd97                    0.48     0.107      0  01:33       0.070     0.000
  jd99                   10.74     0.517      0  02:00       6.082     0.000
  jd102                   0.01     0.043      0  01:41       0.000     0.000
  jd106                  10.65     1.919      0  02:00      17.305     0.000
  jd108                   0.01     0.133      0  01:13       0.001     0.000
  jd110                  10.77     0.992      0  02:00       8.976     0.000
  jd114                  10.71     4.243      0  02:00      54.080     0.000
  jd117                   0.58     1.113      0  01:19       0.280     0.000
  jd122                  10.71     5.684      0  01:54      61.914     0.000
  jd123                   9.92     3.759      0  02:00      46.441     0.000
  jd124                  10.84     3.471      0  02:00      47.226     0.000
  jd125                   1.81     1.603      0  02:00       6.443     0.000
  jd126                  10.81     4.210      0  02:00      41.979     0.000
  
  
  ***********************
  Outfall Loading Summary
  ***********************
  
  -----------------------------------------------------------
                         Flow       Avg       Max       Total
                         Freq      Flow      Flow      Volume
  Outfall Node           Pcnt       CMS       CMS    10^6 ltr
  -----------------------------------------------------------
  psk1                  97.87     0.272     0.872       7.874
  psk2                  97.87     0.734     2.229      21.176
  psk3                  97.89     1.173     3.766      33.972
  psk4                   0.00     0.000     0.000       0.000
  psk5                  97.89     0.267     0.762       7.849
  psk6                  97.87     0.223     0.682       6.519
  psk7                  97.89     1.205     2.647      37.931
  psk8                   0.00     0.000     0.000       0.000
  -----------------------------------------------------------
  System                73.41     3.873     0.000     115.321
  
  
  ********************
  Link Flow Summary
  ********************
  
  -----------------------------------------------------------------------------
                                 Maximum  Time of Max   Maximum    Max/    Max/
                                  |Flow|   Occurrence   |Veloc|    Full    Full
  Link                 Type          CMS  days hr:min     m/sec    Flow   Depth
  -----------------------------------------------------------------------------
  GQ1                  CONDUIT     0.355     0  01:35      1.95    0.93    0.69
  GQ2                  CONDUIT     1.513     0  02:00      2.79    0.72    0.66
  GQ3                  CONDUIT     0.872     0  02:00      6.88    0.03    0.12
  GQ4                  CONDUIT     0.510     0  01:49      1.80    1.00    1.00
  GQ5                  CONDUIT     1.208     0  01:49      2.40    1.00    1.00
  GQ6                  CONDUIT     0.411     0  02:00      1.31    0.19    0.65
  GQ7                  CONDUIT     1.705     0  01:22      3.63    1.02    1.00
  GQ8                  CONDUIT     0.858     0  02:00      1.82    0.82    0.89
  GQ9                  CONDUIT     2.605     0  02:00      5.52    0.92    0.89
  GQ10                 CONDUIT     1.136     0  06:26      4.10    1.04    1.00
  GQ11                 CONDUIT     0.280     0  02:00      2.26    0.30    0.54
  GQ12                 CONDUIT     0.337     0  02:00      1.57    0.37    0.71
  GQ13                 CONDUIT     0.207     0  02:00      0.67    0.10    0.61
  GQ14                 CONDUIT     0.109     0  02:00      1.16    0.15    0.24
  GQ15                 CONDUIT     0.232     0  02:00      4.40    0.93    0.70
  GQ16                 CONDUIT     1.869     0  01:43      4.03    0.90    0.63
  GQ17                 CONDUIT     0.522     0  02:00      2.10    0.16    0.50
  GQ18                 CONDUIT     1.100     0  02:00      2.50    4.96    0.86
  GQ19                 CONDUIT     0.706     0  02:00      2.60    0.08    0.39
  GQ20                 CONDUIT     0.155     0  02:00      0.53    0.08    0.60
  GQ21                 CONDUIT     0.571     0  02:00      1.60    0.18    0.64
  GQ22                 CONDUIT     0.579     0  02:00      1.85    0.18    0.64
  GQ23                 CONDUIT     1.281     0  02:12      2.31    0.63    1.00
  GQ24                 CONDUIT     1.961     0  02:00      3.90    0.97    1.00
  GQ25                 CONDUIT     1.042     0  02:00      4.07    1.17    0.85
  GQ26                 CONDUIT     0.708     0  01:53      2.84    0.83    0.85
  GQ27                 CONDUIT     0.968     0  01:53      3.42    0.97    1.00
  GQ28                 CONDUIT     0.319     0  02:00      0.80    0.34    0.74
  GQ29                 CONDUIT     1.503     0  02:00      2.99    0.70    1.00
  GQ30                 CONDUIT     0.824     0  01:48      2.91    1.00    1.00
  GQ31                 CONDUIT     0.743     0  02:00      2.63    0.99    1.00
  GQ32                 CONDUIT     0.739     0  01:55      2.97    1.19    1.00
  GQ33                 CONDUIT     1.434     0  01:33      5.07    1.00    1.00
  GQ34                 CONDUIT     0.478     0  02:00      1.85    0.75    0.86
  GQ35                 CONDUIT     0.712     0  01:26      2.53    1.32    1.00
  GQ36                 CONDUIT     0.971     0  01:25      3.44    1.20    1.00
  GQ37                 CONDUIT     0.551     0  02:00      1.95    0.79    1.00
  GQ38                 CONDUIT     0.199     0  02:00      0.92    0.28    0.72
  GQ39                 CONDUIT     0.782     0  01:41      2.76    1.00    1.00
  GQ40                 CONDUIT     0.696     0  01:56      2.46    0.87    1.00
  GQ41                 CONDUIT     1.676     0  02:00      2.13    0.78    1.00
  GQ42                 CONDUIT     1.359     0  01:47      2.70    1.00    1.00
  GQ43                 CONDUIT     2.294     0  03:18      4.70    1.03    1.00
  GQ44                 CONDUIT     0.946     0  01:42      1.88    1.00    1.00
  GQ45                 CONDUIT     1.141     0  02:00      2.85    0.46    0.74
  GQ46                 CONDUIT     1.068     0  01:51      2.28    1.00    1.00
  GQ47                 CONDUIT     0.240     0  02:00      1.21    0.23    0.66
  GQ48                 CONDUIT     0.238     0  02:00      1.20    0.23    0.66
  GQ49                 CONDUIT     0.974     0  02:00      4.54    0.37    0.71
  GQ50                 CONDUIT     0.280     0  02:00      1.31    0.37    0.71
  GQ51                 CONDUIT     0.995     0  01:38      3.60    1.52    1.00
  GQ52                 CONDUIT     0.787     0  02:00      1.57    1.05    1.00
  GQ53                 CONDUIT     2.225     0  02:14      2.83    1.00    1.00
  GQ54                 CONDUIT     0.590     0  02:00      2.59    0.51    0.75
  GQ55                 CONDUIT     0.442     0  02:00      2.13    0.30    0.69
  GQ56                 CONDUIT     2.000     0  01:23      4.31    1.09    1.00
  GQ57                 CONDUIT     0.853     0  02:00      2.06    0.56    0.77
  GQ58                 CONDUIT     1.777     0  02:00      4.30    0.56    0.77
  GQ59                 CONDUIT     1.203     0  02:49      2.39    1.00    1.00
  GQ60                 CONDUIT     2.677     0  01:31      1.87    0.65    1.00
  GQ61                 CONDUIT     0.379     0  02:00      0.71    0.05    0.57
  GQ62                 CONDUIT     0.787     0  02:00      0.88    0.08    0.59
  GQ63                 CONDUIT     1.809     0  02:00      1.78    0.05    0.58
  GQ64                 CONDUIT     0.129     0  02:00      1.60    0.10    0.36
  GQ65                 CONDUIT     0.055     0  02:00      0.40    0.10    0.53
  GQ66                 CONDUIT     0.226     0  02:00      0.96    0.07    0.59
  GQ67                 CONDUIT     1.187     0  02:00      1.05    0.82    1.00
  GQ68                 CONDUIT     1.228     0  02:00      2.04    0.39    0.72
  GQ69                 CONDUIT     2.052     0  02:00      4.66    0.73    0.82
  GQ70                 CONDUIT     0.682     0  02:00      8.79    0.10    0.21
  GQ71                 CONDUIT     0.762     0  02:00      6.23    0.19    0.29
  GQ72                 CONDUIT     2.647     0  02:00      5.64    0.63    0.58
  GQ73                 CONDUIT     2.229     0  02:00     13.93    0.14    0.26
  GQ74                 CONDUIT     0.462     0  02:00      1.59    0.08    0.44
  GQ75                 CONDUIT     0.502     0  02:00      0.96    0.15    0.63
  GQ76                 CONDUIT     3.766     0  02:00      6.56    0.81    0.69
  GQ77                 CONDUIT     0.000     0  00:00      0.00    0.00    0.31
  GQ78                 CONDUIT     0.916     0  01:49      3.24    1.00    1.00
  GQ79                 CONDUIT     0.251     0  02:00      1.08    0.54    0.83
  GQ80                 CONDUIT     0.608     0  01:44      2.15    1.00    1.00
  GQ81                 CONDUIT     0.605     0  01:18      2.26    3.84    1.00
  GQ82                 CONDUIT     0.784     0  02:00      3.39    0.54    0.76
  GQ83                 CONDUIT     0.846     0  02:00      3.66    0.54    0.76
  GQ84                 CONDUIT     1.303     0  02:18      4.70    1.03    1.00
  GQ85                 CONDUIT     0.579     0  01:41      2.05    1.00    1.00
  GQ86                 CONDUIT     0.232     0  02:00      1.41    0.10    0.61
  GQ87                 CONDUIT     0.082     0  02:00      0.45    0.12    0.62
  GQ88                 CONDUIT     0.570     0  02:00      2.50    0.51    0.75
  GQ89                 CONDUIT     0.469     0  02:00      1.95    0.62    0.79
  GQ90                 CONDUIT     0.480     0  02:00      2.13    0.48    0.74
  GQ91                 CONDUIT     0.404     0  02:00      1.70    0.49    0.78
  GQ92                 CONDUIT     0.902     0  02:01      1.93    1.30    1.00
  GQ93                 CONDUIT     0.956     0  01:50      1.90    0.82    1.00
  GQ94                 CONDUIT     1.272     0  01:28      2.54    1.51    1.00
  GQ95                 CONDUIT     0.263     0  02:00      0.86    0.07    0.59
  GQ96                 CONDUIT     0.803     0  02:01      1.60    1.37    1.00
  GQ97                 CONDUIT     0.475     0  02:00      2.18    0.86    0.72
  GQ98                 CONDUIT     0.289     0  02:00      1.12    0.41    0.86
  GQ99                 CONDUIT     0.860     0  02:00      1.16    0.05    0.57
  GQ100                CONDUIT     0.618     0  02:00      3.02    1.06    0.69
  GQ101                CONDUIT     0.427     0  02:00      2.04    0.32    0.69
  GQ102                CONDUIT     1.780     0  02:00      4.33    0.54    0.76
  GQ103                CONDUIT     0.595     0  02:00      2.11    0.92    1.00
  GQ104                CONDUIT     1.390     0  01:53      5.01    1.01    1.00
  GQ105                CONDUIT     0.926     0  01:18      1.85    2.94    1.00
  GQ106                CONDUIT     0.459     0  02:00      2.05    0.46    0.74
  GQ107                CONDUIT     1.114     0  02:31      3.94    1.00    1.00
  GQ108                CONDUIT     0.829     0  07:57      1.65    1.00    1.00
  GQ109                CONDUIT     0.358     0  02:00      1.60    0.48    0.77
  GQ110                CONDUIT     0.575     0  02:00      1.42    0.08    0.60
  GQ111                CONDUIT     0.508     0  02:00      2.19    0.46    0.77
  GQ112                CONDUIT     1.582     0  02:00      3.33    0.28    0.44
  GQ113                CONDUIT     0.874     0  02:00      4.41    0.66    0.66
  GQ114                CONDUIT     0.524     0  02:00      0.87    0.21    0.72
  GQ115                CONDUIT     0.227     0  02:00      1.16    0.03    0.24
  GQ116                CONDUIT     0.326     0  02:00      0.70    0.05    0.57
  GQ117                CONDUIT     1.156     0  02:00      4.76    0.72    0.49
  GQ118                CONDUIT     0.437     0  02:00      3.44    0.15    0.50
  GQ119                CONDUIT     2.302     0  02:09      4.58    1.00    1.00
  GQ120                CONDUIT     0.000     0  00:00      0.00    0.00    0.50
  GQ121                CONDUIT     1.414     0  01:50      2.81    1.00    1.00
  GQ122                CONDUIT     0.657     0  02:00      2.29    0.12    0.62
  GQ123                CONDUIT     0.445     0  02:00      2.93    0.21    0.66
  GQ124                CONDUIT     0.275     0  02:00      1.23    0.12    0.51
  GQ125                CONDUIT     0.554     0  02:00      2.20    0.62    0.83
  GQ126                CONDUIT     0.683     0  02:00      2.84    0.65    0.79
  GQ127                CONDUIT     0.825     0  03:11      1.64    1.06    1.00
  GQ128                CONDUIT     2.320     0  02:00      3.21    0.51    0.76
  GQ129                CONDUIT     1.313     0  02:43      2.61    1.00    1.00
  GQ130                CONDUIT     1.073     0  01:40      3.79    1.00    1.00
  GQ131                CONDUIT     0.862     0  01:38      3.05    1.00    1.00
  
  
  ***************************
  Flow Classification Summary
  ***************************
  
  -------------------------------------------------------------------------------------
                      Adjusted    ---------- Fraction of Time in Flow Class ---------- 
                       /Actual         Up    Down  Sub   Sup   Up    Down  Norm  Inlet 
  Conduit               Length    Dry  Dry   Dry   Crit  Crit  Crit  Crit  Ltd   Ctrl  
  -------------------------------------------------------------------------------------
  GQ1                     1.00   0.02  0.00  0.00  0.11  0.87  0.00  0.00  0.01  0.00
  GQ2                     1.00   0.02  0.00  0.00  0.02  0.96  0.00  0.00  0.89  0.00
  GQ3                     1.00   0.02  0.00  0.00  0.00  0.98  0.00  0.00  0.20  0.00
  GQ4                     1.00   0.02  0.00  0.00  0.97  0.01  0.00  0.00  0.35  0.00
  GQ5                     1.00   0.02  0.00  0.00  0.98  0.00  0.00  0.00  0.75  0.00
  GQ6                     1.00   0.02  0.00  0.00  0.97  0.01  0.00  0.00  0.92  0.00
  GQ7                     1.00   0.02  0.00  0.00  0.38  0.60  0.00  0.00  0.17  0.00
  GQ8                     1.00   0.02  0.00  0.00  0.98  0.00  0.00  0.00  0.86  0.00
  GQ9                     1.00   0.02  0.00  0.00  0.70  0.28  0.00  0.00  0.89  0.00
  GQ10                    1.00   0.02  0.00  0.00  0.84  0.14  0.00  0.00  0.38  0.00
  GQ11                    1.00   0.02  0.00  0.00  0.28  0.70  0.00  0.00  0.90  0.00
  GQ12                    1.00   0.02  0.00  0.00  0.97  0.01  0.00  0.00  0.92  0.00
  GQ13                    1.00   0.02  0.00  0.00  0.98  0.00  0.00  0.00  0.92  0.00
  GQ14                    1.00   0.02  0.00  0.00  0.97  0.01  0.00  0.00  0.00  0.00
  GQ15                    1.00   0.02  0.00  0.00  0.00  0.98  0.00  0.00  0.01  0.00
  GQ16                    1.00   0.02  0.00  0.00  0.00  0.98  0.00  0.00  0.00  0.00
  GQ17                    1.00   0.02  0.00  0.00  0.71  0.26  0.00  0.00  0.92  0.00
  GQ18                    1.00   0.02  0.00  0.00  0.86  0.12  0.00  0.00  0.02  0.00
  GQ19                    1.00   0.02  0.00  0.00  0.69  0.29  0.00  0.00  0.92  0.00
  GQ20                    1.00   0.02  0.00  0.00  0.98  0.00  0.00  0.00  0.92  0.00
  GQ21                    1.00   0.02  0.00  0.00  0.61  0.37  0.00  0.00  0.92  0.00
  GQ22                    1.00   0.02  0.00  0.00  0.12  0.86  0.00  0.00  0.92  0.00
  GQ23                    1.00   0.02  0.00  0.00  0.12  0.86  0.00  0.00  0.21  0.00
  GQ24                    1.00   0.02  0.00  0.00  0.85  0.13  0.00  0.00  0.78  0.00
  GQ25                    1.00   0.02  0.00  0.00  0.00  0.98  0.00  0.00  0.00  0.00
  GQ26                    1.00   0.02  0.00  0.00  0.01  0.97  0.00  0.00  0.88  0.00
  GQ27                    1.00   0.02  0.00  0.00  0.84  0.14  0.00  0.00  0.76  0.00
  GQ28                    1.00   0.02  0.00  0.00  0.98  0.00  0.00  0.00  0.77  0.00
  GQ29                    1.00   0.02  0.00  0.00  0.97  0.00  0.00  0.00  0.02  0.00
  GQ30                    1.00   0.02  0.00  0.00  0.96  0.01  0.00  0.00  0.01  0.00
  GQ31                    1.00   0.02  0.00  0.00  0.98  0.00  0.00  0.00  0.77  0.00
  GQ32                    1.00   0.02  0.00  0.00  0.08  0.90  0.00  0.00  0.01  0.00
  GQ33                    1.00   0.02  0.00  0.00  0.53  0.45  0.00  0.00  0.75  0.00
  GQ34                    1.00   0.02  0.00  0.00  0.97  0.01  0.00  0.00  0.85  0.00
  GQ35                    1.00   0.02  0.00  0.00  0.27  0.71  0.00  0.00  0.66  0.00
  GQ36                    1.00   0.02  0.00  0.00  0.25  0.73  0.00  0.00  0.74  0.00
  GQ37                    1.00   0.02  0.00  0.00  0.98  0.00  0.00  0.00  0.77  0.00
  GQ38                    1.00   0.02  0.00  0.00  0.98  0.00  0.00  0.00  0.77  0.00
  GQ39                    1.00   0.02  0.00  0.00  0.96  0.02  0.00  0.00  0.76  0.00
  GQ40                    1.00   0.02  0.00  0.00  0.23  0.74  0.00  0.00  0.79  0.00
  GQ41                    1.00   0.02  0.00  0.00  0.98  0.00  0.00  0.00  0.75  0.00
  GQ42                    1.00   0.02  0.00  0.00  0.98  0.00  0.00  0.00  0.52  0.00
  GQ43                    1.00   0.02  0.00  0.00  0.26  0.72  0.00  0.00  0.76  0.00
  GQ44                    1.00   0.02  0.00  0.00  0.98  0.00  0.00  0.00  0.33  0.00
  GQ45                    1.00   0.02  0.00  0.00  0.45  0.53  0.00  0.00  0.87  0.00
  GQ46                    1.00   0.02  0.00  0.00  0.73  0.25  0.00  0.00  0.46  0.00
  GQ47                    1.00   0.02  0.00  0.00  0.98  0.00  0.00  0.00  0.92  0.00
  GQ48                    1.00   0.02  0.00  0.00  0.98  0.00  0.00  0.00  0.92  0.00
  GQ49                    1.00   0.02  0.00  0.00  0.71  0.27  0.00  0.00  0.92  0.00
  GQ50                    1.00   0.02  0.00  0.00  0.98  0.00  0.00  0.00  0.92  0.00
  GQ51                    1.00   0.02  0.00  0.00  0.13  0.85  0.00  0.00  0.71  0.00
  GQ52                    1.00   0.02  0.00  0.00  0.98  0.00  0.00  0.00  0.84  0.00
  GQ53                    1.00   0.02  0.00  0.00  0.98  0.00  0.00  0.00  0.56  0.00
  GQ54                    1.00   0.02  0.00  0.00  0.85  0.13  0.00  0.00  0.92  0.00
  GQ55                    1.00   0.02  0.00  0.00  0.88  0.10  0.00  0.00  0.92  0.00
  GQ56                    1.00   0.02  0.00  0.00  0.27  0.71  0.00  0.00  0.70  0.00
  GQ57                    1.00   0.02  0.00  0.00  0.98  0.00  0.00  0.00  0.92  0.00
  GQ58                    1.00   0.02  0.00  0.00  0.72  0.26  0.00  0.00  0.92  0.00
  GQ59                    1.00   0.02  0.00  0.00  0.98  0.00  0.00  0.00  0.56  0.00
  GQ60                    1.00   0.02  0.00  0.00  0.98  0.00  0.00  0.00  0.03  0.00
  GQ61                    1.00   0.02  0.00  0.00  0.98  0.00  0.00  0.00  0.92  0.00
  GQ62                    1.00   0.02  0.00  0.00  0.97  0.00  0.00  0.00  0.91  0.00
  GQ63                    1.00   0.02  0.00  0.00  0.97  0.01  0.00  0.00  0.91  0.00
  GQ64                    1.00   0.02  0.00  0.00  0.27  0.71  0.00  0.00  0.92  0.00
  GQ65                    1.00   0.02  0.00  0.00  0.98  0.00  0.00  0.00  0.92  0.00
  GQ66                    1.00   0.02  0.00  0.00  0.97  0.01  0.00  0.00  0.92  0.00
  GQ67                    1.00   0.02  0.00  0.00  0.98  0.00  0.00  0.00  0.00  0.00
  GQ68                    1.00   0.02  0.00  0.00  0.98  0.00  0.00  0.00  0.92  0.00
  GQ69                    1.00   0.02  0.00  0.00  0.70  0.27  0.00  0.00  0.91  0.00
  GQ70                    1.00   0.02  0.00  0.00  0.00  0.98  0.00  0.00  0.00  0.00
  GQ71                    1.00   0.02  0.00  0.00  0.00  0.98  0.00  0.00  0.11  0.00
  GQ72                    1.00   0.02  0.00  0.00  0.00  0.98  0.00  0.00  0.42  0.00
  GQ73                    1.00   0.02  0.00  0.00  0.00  0.98  0.00  0.00  0.00  0.00
  GQ74                    1.00   0.02  0.00  0.00  0.93  0.05  0.00  0.00  0.92  0.00
  GQ75                    1.00   0.02  0.00  0.00  0.98  0.00  0.00  0.00  0.92  0.00
  GQ76                    1.00   0.02  0.00  0.00  0.00  0.98  0.00  0.00  0.35  0.00
  GQ77                    1.00   0.02  0.98  0.00  0.00  0.00  0.00  0.00  0.00  0.00
  GQ78                    1.00   0.02  0.00  0.00  0.96  0.02  0.00  0.00  0.74  0.00
  GQ79                    1.00   0.02  0.00  0.00  0.98  0.00  0.00  0.00  0.02  0.00
  GQ80                    1.00   0.02  0.00  0.00  0.98  0.00  0.00  0.00  0.45  0.00
  GQ81                    1.00   0.02  0.00  0.00  0.98  0.00  0.00  0.00  0.00  0.00
  GQ82                    1.00   0.02  0.00  0.00  0.71  0.26  0.00  0.00  0.91  0.00
  GQ83                    1.00   0.02  0.00  0.00  0.00  0.98  0.00  0.00  0.91  0.00
  GQ84                    1.00   0.02  0.00  0.00  0.26  0.72  0.00  0.00  0.83  0.00
  GQ85                    1.00   0.02  0.00  0.00  0.98  0.00  0.00  0.00  0.50  0.00
  GQ86                    1.00   0.02  0.00  0.00  0.98  0.00  0.00  0.00  0.92  0.00
  GQ87                    1.00   0.02  0.00  0.00  0.98  0.00  0.00  0.00  0.92  0.00
  GQ88                    1.00   0.02  0.00  0.00  0.86  0.12  0.00  0.00  0.92  0.00
  GQ89                    1.00   0.02  0.00  0.00  0.97  0.01  0.00  0.00  0.88  0.00
  GQ90                    1.00   0.02  0.00  0.00  0.90  0.08  0.00  0.00  0.92  0.00
  GQ91                    1.00   0.02  0.00  0.00  0.97  0.01  0.00  0.00  0.86  0.00
  GQ92                    1.00   0.02  0.00  0.00  0.91  0.07  0.00  0.00  0.01  0.00
  GQ93                    1.00   0.02  0.00  0.00  0.98  0.00  0.00  0.00  0.77  0.00
  GQ94                    1.00   0.02  0.00  0.00  0.57  0.41  0.00  0.00  0.06  0.00
  GQ95                    1.00   0.02  0.00  0.00  0.98  0.00  0.00  0.00  0.92  0.00
  GQ96                    1.00   0.02  0.00  0.00  0.98  0.00  0.00  0.00  0.50  0.00
  GQ97                    1.00   0.02  0.00  0.00  0.00  0.98  0.00  0.00  0.47  0.00
  GQ98                    1.00   0.02  0.00  0.00  0.98  0.00  0.00  0.00  0.70  0.00
  GQ99                    1.00   0.02  0.00  0.00  0.97  0.01  0.00  0.00  0.92  0.00
  GQ100                   1.00   0.02  0.00  0.00  0.00  0.98  0.00  0.00  0.00  0.00
  GQ101                   1.00   0.02  0.00  0.00  0.90  0.08  0.00  0.00  0.91  0.00
  GQ102                   1.00   0.02  0.00  0.00  0.71  0.27  0.00  0.00  0.92  0.00
  GQ103                   1.00   0.02  0.00  0.00  0.98  0.00  0.00  0.00  0.77  0.00
  GQ104                   1.00   0.02  0.00  0.00  0.61  0.37  0.00  0.00  0.87  0.00
  GQ105                   1.00   0.02  0.00  0.00  0.98  0.00  0.00  0.00  0.02  0.00
  GQ106                   1.00   0.02  0.00  0.00  0.94  0.04  0.00  0.00  0.92  0.00
  GQ107                   1.00   0.02  0.00  0.00  0.76  0.22  0.00  0.00  0.77  0.00
  GQ108                   1.00   0.02  0.00  0.00  0.98  0.00  0.00  0.00  0.01  0.00
  GQ109                   1.00   0.02  0.00  0.00  0.94  0.04  0.00  0.00  0.86  0.00
  GQ110                   1.00   0.02  0.00  0.00  0.97  0.01  0.00  0.00  0.92  0.00
  GQ111                   1.00   0.02  0.00  0.00  0.90  0.08  0.00  0.00  0.85  0.00
  GQ112                   1.00   0.02  0.00  0.00  0.00  0.98  0.00  0.00  0.90  0.00
  GQ113                   1.00   0.02  0.00  0.00  0.00  0.98  0.00  0.00  0.90  0.00
  GQ114                   1.00   0.02  0.00  0.00  0.98  0.00  0.00  0.00  0.02  0.00
  GQ115                   1.00   0.02  0.00  0.00  0.96  0.02  0.00  0.00  0.92  0.00
  GQ116                   1.00   0.02  0.00  0.00  0.98  0.00  0.00  0.00  0.92  0.00
  GQ117                   1.00   0.02  0.00  0.00  0.00  0.98  0.00  0.00  0.00  0.00
  GQ118                   1.00   0.02  0.00  0.00  0.38  0.60  0.00  0.00  0.91  0.00
  GQ119                   1.00   0.02  0.00  0.00  0.67  0.30  0.00  0.00  0.70  0.00
  GQ120                   1.00   0.02  0.01  0.00  0.97  0.00  0.00  0.00  0.00  0.00
  GQ121                   1.00   0.02  0.00  0.00  0.97  0.01  0.00  0.00  0.01  0.00
  GQ122                   1.00   0.02  0.00  0.00  0.96  0.01  0.00  0.00  0.92  0.00
  GQ123                   1.00   0.02  0.00  0.00  0.86  0.12  0.00  0.00  0.91  0.00
  GQ124                   1.00   0.02  0.00  0.00  0.97  0.01  0.00  0.00  0.92  0.00
  GQ125                   1.00   0.02  0.00  0.00  0.97  0.01  0.00  0.00  0.85  0.00
  GQ126                   1.00   0.02  0.00  0.00  0.80  0.18  0.00  0.00  0.92  0.00
  GQ127                   1.00   0.02  0.00  0.00  0.98  0.00  0.00  0.00  0.41  0.00
  GQ128                   1.00   0.02  0.00  0.00  0.27  0.70  0.00  0.00  0.85  0.00
  GQ129                   1.00   0.02  0.00  0.00  0.98  0.00  0.00  0.00  0.38  0.00
  GQ130                   1.00   0.02  0.00  0.00  0.83  0.15  0.00  0.00  0.38  0.00
  GQ131                   1.00   0.02  0.00  0.00  0.96  0.02  0.00  0.00  0.76  0.00
  
  
  *************************
  Conduit Surcharge Summary
  *************************
  
  ----------------------------------------------------------------------------
                                                           Hours        Hours 
                         --------- Hours Full --------   Above Full   Capacity
  Conduit                Both Ends  Upstream  Dnstream   Normal Flow   Limited
  ----------------------------------------------------------------------------
  GQ1                         0.01      0.44      0.01      0.01         0.01
  GQ4                         5.44      5.44     10.71      0.01         0.01
  GQ5                         1.61      1.61     10.69      0.01         0.01
  GQ6                         0.01      0.01      1.61      0.01         0.01
  GQ7                         2.03      2.03      4.39      0.01         0.01
  GQ8                         0.01      0.01      2.03      0.01         0.01
  GQ9                         0.01      0.01     10.77      0.01         0.01
  GQ10                        6.15      6.15     10.79      0.16         0.01
  GQ12                        0.01      0.01      9.87      0.01         0.01
  GQ13                        0.01      0.01      4.59      0.01         0.01
  GQ16                        0.01      0.45      0.01      0.01         0.01
  GQ18                        0.01      0.01      7.33      8.57         0.01
  GQ20                        0.01      0.01      1.53      0.01         0.01
  GQ21                        0.01      0.01      1.53      0.01         0.01
  GQ22                        0.01      0.01      0.18      0.01         0.01
  GQ23                        0.18      0.18      0.52      0.01         0.01
  GQ24                        0.64      0.64     10.74      0.01         0.01
  GQ25                        0.01      0.63      0.01      0.61         0.01
  GQ26                        0.01      0.01      0.80      0.01         0.01
  GQ27                        0.80      0.80     10.68      0.01         0.01
  GQ28                        0.01      0.01     10.70      0.01         0.01
  GQ29                       10.61     10.61     10.70      0.01         0.01
  GQ30                       10.68     10.68     10.71      0.01         0.01
  GQ31                        0.63      0.63     10.80      0.01         0.01
  GQ32                        0.15      1.73      0.15      1.66         0.15
  GQ33                        1.73      1.73     10.80      0.01         0.01
  GQ34                        0.01      0.01      1.73      0.01         0.01
  GQ35                        1.67      1.71      1.73      0.12         0.01
  GQ36                        1.69      1.71      1.72      1.77         1.68
  GQ37                        0.15      0.15     10.77      0.01         0.01
  GQ38                        0.01      0.01     10.77      0.01         0.01
  GQ39                        1.59      1.59      9.87      0.01         0.01
  GQ40                        0.15      0.15      1.59      0.01         0.01
  GQ41                        0.45      0.45     10.70      0.01         0.01
  GQ42                        2.52      2.52     10.71      0.01         0.01
  GQ43                        1.82      1.82      2.52      0.03         0.01
  GQ44                        5.41      5.41      7.33      0.01         0.01
  GQ45                        0.01      0.01      3.80      0.01         0.01
  GQ46                        3.80      3.80      5.41      0.01         0.01
  GQ47                        0.01      0.01     10.75      0.01         0.01
  GQ48                        0.01      0.01     10.76      0.01         0.01
  GQ49                        0.01      0.01     10.76      0.01         0.01
  GQ50                        0.01      0.01      1.56      0.01         0.01
  GQ51                        0.44      1.56      0.44      1.64         0.44
  GQ52                        0.26      0.26     10.61      0.08         0.07
  GQ53                        1.88      1.88     10.70      0.01         0.01
  GQ54                        0.01      0.01     10.77      0.01         0.01
  GQ55                        0.01      0.01     10.77      0.01         0.01
  GQ56                        1.80      1.85      2.03      0.20         0.05
  GQ57                        0.01      0.01      1.85      0.01         0.01
  GQ58                        0.01      0.01     10.68      0.01         0.01
  GQ59                        2.52      2.52     10.68      0.01         0.01
  GQ60                        1.61      1.61      3.07      0.01         0.01
  GQ61                        0.01      0.01     10.56      0.01         0.01
  GQ62                        0.01      0.01     10.58      0.01         0.01
  GQ63                        0.01      0.01     10.58      0.01         0.01
  GQ66                        0.01      0.01     10.61      0.01         0.01
  GQ67                       10.57     10.57     10.58      0.01         0.01
  GQ68                        0.01      0.01     10.65      0.01         0.01
  GQ69                        0.01      0.01     10.74      0.01         0.01
  GQ75                        0.01      0.01     10.65      0.01         0.01
  GQ78                        1.83      1.83     10.77      0.01         0.01
  GQ79                        0.01      0.01     10.77      0.01         0.01
  GQ80                        1.83      1.83      9.22      0.01         0.01
  GQ81                        9.14      9.22      9.87      7.56         2.27
  GQ82                        0.01      0.01      9.87      0.01         0.01
  GQ83                        0.01      0.01      0.62      0.01         0.01
  GQ84                        0.86      0.86      2.02      0.08         0.01
  GQ85                        0.86      0.86     10.84      0.01         0.01
  GQ86                        0.01      0.01     10.77      0.01         0.01
  GQ87                        0.01      0.01     10.77      0.01         0.01
  GQ88                        0.01      0.01     10.76      0.01         0.01
  GQ89                        0.01      0.01     10.68      0.01         0.01
  GQ90                        0.01      0.01     10.63      0.01         0.01
  GQ91                        0.01      0.01     10.70      0.01         0.01
  GQ92                        1.48      1.52      1.56      0.71         0.60
  GQ93                        1.56      1.56      1.80      0.01         0.01
  GQ94                        1.78      1.80      1.82      1.80         1.73
  GQ95                        0.01      0.01     10.81      0.01         0.01
  GQ96                        1.50      1.53      1.52      0.86         0.71
  GQ98                        0.01      0.01     10.74      0.01         0.01
  GQ99                        0.01      0.01     10.59      0.01         0.01
  GQ100                       0.01      0.41      0.01      0.34         0.01
  GQ101                       0.01      0.01     10.71      0.01         0.01
  GQ102                       0.01      0.01     10.71      0.01         0.01
  GQ103                       0.47      0.47     10.73      0.01         0.01
  GQ104                       0.15      0.15     10.73      0.12         0.01
  GQ105                      10.69     10.69     10.71      9.49         0.01
  GQ106                       0.01      0.01     10.70      0.01         0.01
  GQ107                       1.59      1.59     10.70      0.01         0.01
  GQ108                       7.81      7.81     10.69      0.01         0.01
  GQ109                       0.01      0.01      1.59      0.01         0.01
  GQ110                       0.01      0.01     10.65      0.01         0.01
  GQ111                       0.01      0.01     10.71      0.01         0.01
  GQ114                       0.01      0.01     10.77      0.01         0.01
  GQ116                       0.01      0.01     10.77      0.01         0.01
  GQ119                       1.87      1.87     10.73      0.01         0.01
  GQ120                       0.01      0.01     10.71      0.01         0.01
  GQ121                      10.68     10.68     10.73      0.01         0.01
  GQ122                       0.01      0.01     10.68      0.01         0.01
  GQ123                       0.01      0.01     10.69      0.01         0.01
  GQ125                       0.01      0.01     10.70      0.01         0.01
  GQ126                       0.01      0.01     10.71      0.01         0.01
  GQ127                       1.82      1.82      1.87      0.09         0.08
  GQ128                       0.01      0.01      1.69      0.01         0.01
  GQ129                       4.39      4.39     10.74      0.01         0.01
  GQ130                       4.84      4.84     10.84      0.01         0.01
  GQ131                       1.56      1.56     10.81      0.01         0.01
  

  Analysis begun on:  Sat Mar 25 16:21:22 2023
  Analysis ended on:  Sat Mar 25 16:21:26 2023
  Total elapsed time: 00:00:04