
  OWA STORM WATER MANAGEMENT MODEL - VERSION v5.1.14 (OWA 2022-07-31)
  --------------------------------------------------------------

  INP file created by DSDAConvertToSwmmTools 
  version 0.0.1 EcoVista 
  Title/Notes: 
  
  
  *********************************************************
  NOTE: The summary statistics displayed in this report are
  based on results found at every computational time step,  
  not just on results from each reporting time step.
  *********************************************************
  
  ****************
  Analysis Options
  ****************
  Flow Units ............... CMS
  Process Models:
    Rainfall/Runoff ........ YES
    RDII ................... NO
    Snowmelt ............... NO
    Groundwater ............ NO
    Flow Routing ........... YES
    Ponding Allowed ........ NO
    Water Quality .......... NO
  Infiltration Method ...... GREEN_AMPT
  Flow Routing Method ...... DYNWAVE
  Surcharge Method ......... EXTRAN
  Starting Date ............ 07/15/2020 00:00:00
  Ending Date .............. 07/15/2020 08:00:00
  Antecedent Dry Days ...... 0.0
  Report Time Step ......... 00:30:00
  Wet Time Step ............ 00:05:00
  Dry Time Step ............ 01:00:00
  Routing Time Step ........ 30.00 sec
  Variable Time Step ....... YES
  Maximum Trials ........... 8
  Number of Threads ........ 1
  Head Tolerance ........... 0.001500 m
  
  
  **************************        Volume         Depth
  Runoff Quantity Continuity     hectare-m            mm
  **************************     ---------       -------
  Total Precipitation ......       163.058        40.800
  Evaporation Loss .........         2.616         0.655
  Infiltration Loss ........        43.576        10.904
  Surface Runoff ...........       109.988        27.521
  Final Storage ............         7.109         1.779
  Continuity Error (%) .....        -0.143
  
  
  **************************        Volume        Volume
  Flow Routing Continuity        hectare-m      10^6 ltr
  **************************     ---------     ---------
  Dry Weather Inflow .......         0.000         0.000
  Wet Weather Inflow .......       109.916      1099.173
  Groundwater Inflow .......         0.000         0.000
  RDII Inflow ..............         0.000         0.000
  External Inflow ..........         0.000         0.000
  External Outflow .........         9.577        95.774
  Flooding Loss ............        98.926       989.267
  Evaporation Loss .........         0.000         0.000
  Exfiltration Loss ........         0.000         0.000
  Initial Stored Volume ....         0.000         0.000
  Final Stored Volume ......         1.282        12.821
  Continuity Error (%) .....         0.119
  
  
  *************************
  Highest Continuity Errors
  *************************
  Node jd51 (4.96%)
  Node jd59 (3.99%)
  Node jd64 (3.99%)
  Node jd31 (3.66%)
  Node jd41 (3.32%)
  
  
  ***************************
  Time-Step Critical Elements
  ***************************
  Link GQ73 (96.78%)
  
  
  ********************************
  Highest Flow Instability Indexes
  ********************************
  Link GQ67 (23)
  Link GQ114 (10)
  Link GQ96 (6)
  Link GQ29 (5)
  Link GQ93 (4)
  
  
  *************************
  Routing Time Step Summary
  *************************
  Minimum Time Step           :     4.04 sec
  Average Time Step           :     6.98 sec
  Maximum Time Step           :    30.00 sec
  Percent in Steady State     :    -0.00
  Average Iterations per Step :     4.87
  Percent Not Converging      :    24.92
  
  
  ***************************
  Subcatchment Runoff Summary
  ***************************
  
  ------------------------------------------------------------------------------------------------------------------------------
                            Total      Total      Total      Total     Imperv       Perv      Total       Total     Peak  Runoff
                           Precip      Runon       Evap      Infil     Runoff     Runoff     Runoff      Runoff   Runoff   Coeff
  Subcatchment                 mm         mm         mm         mm         mm         mm         mm    10^6 ltr      CMS
  ------------------------------------------------------------------------------------------------------------------------------
  1                         40.80       0.00       0.39      22.86      16.66       0.00      16.66        6.59     0.90   0.408
  2                         40.80       0.00       0.70       8.68      29.38       0.00      29.38       26.57     3.67   0.720
  3                         40.80       0.00       0.73       7.44      30.75       0.00      30.75       12.31     1.70   0.754
  4                         40.80       0.00       0.75       6.39      31.85       0.00      31.85        2.67     0.37   0.781
  5                         40.80       0.00       0.67      10.39      28.16       0.00      28.16        3.48     0.48   0.690
  6                         40.80       0.00       0.64      11.69      27.00       0.00      27.00        2.51     0.34   0.662
  7                         40.80       0.00       0.66      10.44      27.88       0.00      27.88       12.16     1.68   0.683
  8                         40.80       0.00       0.84       2.28      35.47       0.00      35.47        4.94     0.68   0.869
  9                         40.80       0.00       0.87       1.14      36.57       0.00      36.57        4.28     0.59   0.896
  10                        40.80       0.00       0.75       6.64      31.52       0.00      31.52        7.10     0.98   0.773
  11                        40.80       0.00       0.81       3.90      33.94       0.00      33.94       16.83     2.32   0.832
  12                        40.80       0.00       0.64      11.73      26.82       0.00      26.82       13.09     1.80   0.657
  13                        40.80       0.00       0.80       4.40      33.50       0.00      33.50       15.15     2.09   0.821
  14                        40.80       0.00       0.80       4.45      33.56       0.00      33.56        6.33     0.87   0.823
  15                        40.80       0.00       0.74       7.17      31.00       0.00      31.00       10.48     1.44   0.760
  16                        40.80       0.00       0.76       5.93      32.11       0.00      32.11        9.48     1.31   0.787
  17                        40.80       0.00       0.72       8.14      30.10       0.00      30.10       12.60     1.74   0.738
  18                        40.80       0.00       0.82       3.21      34.57       0.00      34.57       14.27     1.97   0.847
  19                        40.80       0.00       0.82       3.36      34.41       0.00      34.41        7.74     1.07   0.843
  20                        40.80       0.00       0.81       3.58      34.06       0.00      34.06       18.28     2.53   0.835
  21                        40.80       0.00       0.87       1.20      36.40       0.00      36.40       11.42     1.58   0.892
  22                        40.80       0.00       0.85       1.93      35.70       0.00      35.70        4.39     0.61   0.875
  23                        40.80       0.00       0.78       4.99      32.88       0.00      32.88       18.82     2.60   0.806
  24                        40.80       0.00       0.76       6.23      31.73       0.00      31.73        5.63     0.78   0.778
  25                        40.80       0.00       0.81       3.83      34.10       0.00      34.10        6.90     0.95   0.836
  26                        40.80       0.00       0.69       9.31      28.85       0.00      28.85       10.13     1.40   0.707
  27                        40.80       0.00       0.83       3.05      34.54       0.00      34.54       14.60     2.02   0.847
  28                        40.80       0.00       0.84       2.25      35.36       0.00      35.36       16.72     2.31   0.867
  29                        40.80       0.00       0.75       6.33      31.84       0.00      31.84        7.43     1.02   0.780
  30                        40.80       0.00       0.86       1.38      36.47       0.00      36.47        2.61     0.36   0.894
  31                        40.80       0.00       0.87       0.86      36.76       0.00      36.76        8.10     1.12   0.901
  32                        40.80       0.00       0.85       1.82      35.84       0.00      35.84       15.49     2.14   0.878
  33                        40.80       0.00       0.86       1.33      36.25       0.00      36.25       12.77     1.76   0.889
  34                        40.80       0.00       0.80       4.13      33.75       0.00      33.75        9.89     1.37   0.827
  35                        40.80       0.00       0.83       3.08      34.70       0.00      34.70       14.39     1.99   0.850
  36                        40.80       0.00       0.68       9.72      28.70       0.00      28.70       11.29     1.55   0.703
  37                        40.80       0.00       0.85       2.20      35.49       0.00      35.49        7.88     1.09   0.870
  38                        40.80       0.00       0.79       4.62      33.32       0.00      33.32       12.71     1.75   0.817
  39                        40.80       0.00       0.72       8.11      30.16       0.00      30.16       12.74     1.75   0.739
  40                        40.80       0.00       0.80       4.41      33.50       0.00      33.50        7.66     1.06   0.821
  41                        40.80       0.00       0.81       3.59      34.33       0.00      34.33        6.77     0.93   0.841
  42                        40.80       0.00       0.81       3.63      34.06       0.00      34.06        8.41     1.16   0.835
  43                        40.80       0.00       0.68       9.54      28.72       0.00      28.72       22.71     3.13   0.704
  44                        40.80       0.00       0.73       7.44      30.63       0.00      30.63       14.81     2.04   0.751
  45                        40.80       0.00       0.69       9.46      28.84       0.00      28.84       20.87     2.88   0.707
  46                        40.80       0.00       0.66      10.54      27.99       0.00      27.99       13.99     1.92   0.686
  47                        40.80       0.00       0.70       9.02      29.24       0.00      29.24       34.09     4.70   0.717
  48                        40.80       0.00       0.83       2.82      34.73       0.00      34.73       20.15     2.79   0.851
  49                        40.80       0.00       0.76       6.04      31.81       0.00      31.81       21.53     2.98   0.780
  50                        40.80       0.00       0.84       2.30      35.06       0.00      35.06       13.78     1.90   0.859
  51                        40.80       0.00       0.81       3.96      33.59       0.00      33.59        6.29     0.87   0.823
  52                        40.80       0.00       0.39      22.89      16.67       0.00      16.67       17.11     2.34   0.409
  53                        40.80       0.00       0.57      14.86      24.05       0.00      24.05       25.61     3.51   0.589
  54                        40.80       0.00       0.70       8.79      29.53       0.00      29.53        7.20     0.99   0.724
  55                        40.80       0.00       0.40      22.47      17.05       0.00      17.05       13.45     1.84   0.418
  56                        40.80       0.00       0.15      33.89       6.52       0.00       6.52        5.31     0.72   0.160
  57                        40.80       0.00       0.79       4.54      33.18       0.00      33.18       27.57     3.81   0.813
  58                        40.80       0.00       0.74       7.21      30.96       0.00      30.96        5.10     0.70   0.759
  59                        40.80       0.00       0.72       8.01      30.36       0.00      30.36        3.87     0.53   0.744
  60                        40.80       0.00       0.27      28.51      11.50       0.00      11.50        3.29     0.45   0.282
  61                        40.80       0.00       0.42      21.69      17.68       0.00      17.68        6.66     0.92   0.433
  62                        40.80       0.00       0.58      14.20      24.49       0.00      24.49       28.70     3.95   0.600
  63                        40.80       0.00       0.79       4.50      33.11       0.00      33.11       64.04     8.84   0.812
  64                        40.80       0.00       0.59      13.72      25.06       0.00      25.06        5.38     0.74   0.614
  65                        40.80       0.00       0.81       3.98      33.62       0.00      33.62       22.61     3.12   0.824
  66                        40.80       0.00       0.63      11.80      26.64       0.00      26.64        6.79     0.94   0.653
  67                        40.80       0.00       0.59      13.70      25.13       0.00      25.13        8.13     1.11   0.616
  68                        40.80       0.00       0.71       8.29      30.02       0.00      30.02        3.34     0.46   0.736
  69                        40.80       0.00       0.42      21.72      17.83       0.00      17.83        5.71     0.78   0.437
  70                        40.80       0.00       0.59      13.95      24.77       0.00      24.77       20.38     2.81   0.607
  71                        40.80       0.00       0.73       7.63      30.61       0.00      30.61        3.76     0.52   0.750
  72                        40.80       0.00       0.77       5.82      32.27       0.00      32.27        4.02     0.55   0.791
  73                        40.80       0.00       0.69       9.11      29.33       0.00      29.33        4.87     0.67   0.719
  74                        40.80       0.00       0.66      10.60      27.95       0.00      27.95        6.01     0.83   0.685
  75                        40.80       0.00       0.74       7.23      31.00       0.00      31.00        4.47     0.61   0.760
  76                        40.80       0.00       0.77       5.48      32.63       0.00      32.63        3.16     0.43   0.800
  77                        40.80       0.00       0.82       3.14      34.69       0.00      34.69        3.75     0.52   0.850
  78                        40.80       0.00       0.80       4.47      33.46       0.00      33.46        3.68     0.51   0.820
  79                        40.80       0.00       0.35      24.86      14.87       0.00      14.87       15.76     2.15   0.364
  80                        40.80       0.00       0.66      10.77      27.61       0.00      27.61       17.28     2.39   0.677
  81                        40.80       0.00       0.67      10.29      28.03       0.00      28.03       12.22     1.69   0.687
  82                        40.80       0.00       0.64      11.59      26.86       0.00      26.86       24.62     3.39   0.658
  83                        40.80       0.00       0.80       4.28      33.70       0.00      33.70        4.12     0.57   0.826
  84                        40.80       0.00       0.75       6.34      31.75       0.00      31.75        3.79     0.52   0.778
  85                        40.80       0.00       0.89       0.31      37.36       0.00      37.36        3.47     0.48   0.916
  86                        40.80       0.00       0.82       3.44      34.42       0.00      34.42        5.07     0.70   0.844
  87                        40.80       0.00       0.87       0.87      36.69       0.00      36.69        4.83     0.67   0.899
  88                        40.80       0.00       0.78       5.09      32.97       0.00      32.97        3.16     0.43   0.808
  89                        40.80       0.00       0.82       3.28      34.60       0.00      34.60        6.66     0.92   0.848
  90                        40.80       0.00       0.89       0.01      37.71       0.00      37.71        0.43     0.06   0.924
  91                        40.80       0.00       0.74       6.84      31.09       0.00      31.09        6.78     0.94   0.762
  92                        40.80       0.00       0.82       3.17      34.67       0.00      34.67        4.33     0.60   0.850
  93                        40.80       0.00       0.67      10.13      28.27       0.00      28.27       14.47     1.99   0.693
  94                        40.80       0.00       0.60      13.22      25.66       0.00      25.66        1.80     0.25   0.629
  95                        40.80       0.00       0.89       0.04      37.59       0.00      37.59        0.82     0.11   0.921
  96                        40.80       0.00       0.72       7.90      30.39       0.00      30.39        3.71     0.51   0.745
  97                        40.80       0.00       0.87       0.86      36.80       0.00      36.80        3.66     0.50   0.902
  98                        40.80       0.00       0.72       7.71      30.59       0.00      30.59        3.77     0.52   0.750
  99                        40.80       0.00       0.36      24.41      15.31       0.00      15.31        5.68     0.77   0.375
  100                       40.80       0.00       0.40      22.58      17.02       0.00      17.02        4.37     0.59   0.417
  101                       40.80       0.00       0.41      22.13      17.39       0.00      17.39        8.52     1.16   0.426
  102                       40.80       0.00       0.67      10.38      28.08       0.00      28.08        6.85     0.94   0.688
  103                       40.80       0.00       0.22      30.63       9.56       0.00       9.56        3.48     0.47   0.234
  104                       40.80       0.00       0.15      33.92       6.46       0.00       6.46        6.26     0.85   0.158
  105                       40.80       0.00       0.73       7.25      31.01       0.00      31.01        4.06     0.56   0.760
  106                       40.80       0.00       0.40      22.62      16.94       0.00      16.94        4.13     0.56   0.415
  
  
  ******************
  Node Depth Summary
  ******************
  
  ---------------------------------------------------------------------------------
                                 Average  Maximum  Maximum  Time of Max    Reported
                                   Depth    Depth      HGL   Occurrence   Max Depth
  Node                 Type       Meters   Meters   Meters  days hr:min      Meters
  ---------------------------------------------------------------------------------
  jd1                  JUNCTION     0.14     0.24   273.24     0  04:00        0.24
  jd2                  JUNCTION     0.89     3.00   270.00     0  01:54        3.00
  jd3                  JUNCTION     2.83     3.00   266.00     0  01:25        3.00
  jd4                  JUNCTION     1.82     3.00   270.00     0  01:34        3.00
  jd5                  JUNCTION     0.10     0.18   274.18     0  04:00        0.18
  jd6                  JUNCTION     0.12     0.23   275.23     0  04:00        0.23
  jd7                  JUNCTION     0.38     0.59   264.69     0  04:00        0.59
  jd8                  JUNCTION     2.17     3.00   267.00     0  01:26        3.00
  jd9                  JUNCTION     1.86     3.00   268.00     0  01:29        3.00
  jd10                 JUNCTION     2.86     3.00   273.00     0  01:21        3.00
  jd11                 JUNCTION     0.11     0.20   282.20     0  04:00        0.20
  jd12                 JUNCTION     2.86     3.00   272.00     0  01:20        3.00
  jd13                 JUNCTION     0.14     0.26   289.26     0  04:00        0.26
  jd14                 JUNCTION     0.76     3.00   283.00     0  03:14        3.00
  jd15                 JUNCTION     0.32     0.65   278.65     0  04:00        0.65
  jd16                 JUNCTION     0.35     0.72   274.72     0  04:00        0.72
  jd17                 JUNCTION     2.63     3.00   278.80     0  01:29        3.00
  jd18                 JUNCTION     0.80     3.00   282.00     0  03:19        3.00
  jd19                 JUNCTION     1.41     3.00   270.00     0  01:30        3.00
  jd20                 JUNCTION     0.23     0.41   273.41     0  04:00        0.41
  jd21                 JUNCTION     2.84     3.00   273.00     0  01:25        3.00
  jd22                 JUNCTION     1.96     3.00   275.00     0  01:27        3.00
  jd23                 JUNCTION     0.59     3.00   281.00     0  03:25        3.00
  jd24                 JUNCTION     0.16     0.30   285.30     0  04:00        0.30
  jd25                 JUNCTION     0.49     3.00   282.00     0  03:32        2.45
  jd26                 JUNCTION     0.78     3.00   288.00     0  03:14        3.00
  jd27                 JUNCTION     0.42     3.00   294.00     0  03:32        2.12
  jd28                 JUNCTION     2.87     3.00   290.00     0  01:19        3.00
  jd29                 JUNCTION     0.11     0.20   299.20     0  04:00        0.20
  jd30                 JUNCTION     0.15     0.26   290.26     0  04:00        0.26
  jd31                 JUNCTION     1.18     3.00   275.00     0  01:31        2.15
  jd32                 JUNCTION     2.85     3.00   275.00     0  01:21        3.00
  jd33                 JUNCTION     0.22     0.44   289.44     0  04:00        0.44
  jd34                 JUNCTION     0.65     3.00   297.00     0  03:16        3.00
  jd35                 JUNCTION     2.88     3.00   292.00     0  01:16        3.00
  jd36                 JUNCTION     1.06     3.00   302.00     0  01:46        3.00
  jd37                 JUNCTION     1.02     3.00   306.00     0  01:46        3.00
  jd38                 JUNCTION     0.61     3.00   300.00     0  03:26        2.16
  jd39                 JUNCTION     2.84     3.00   297.00     0  01:25        3.00
  jd40                 JUNCTION     1.43     3.00   302.00     0  01:40        3.00
  jd41                 JUNCTION     2.79     3.00   296.00     0  01:35        3.00
  jd42                 JUNCTION     0.23     0.46   305.46     0  04:00        0.46
  jd43                 JUNCTION     1.33     3.00   300.00     0  01:32        3.00
  jd44                 JUNCTION     1.36     3.00   286.00     0  01:38        3.00
  jd45                 JUNCTION     2.84     3.00   282.00     0  01:24        3.00
  jd46                 JUNCTION     0.56     3.00   278.00     0  03:35        3.00
  jd47                 JUNCTION     0.18     0.33   315.33     0  04:00        0.33
  jd48                 JUNCTION     0.12     0.23   325.23     0  04:00        0.23
  jd49                 JUNCTION     0.37     3.00   292.00     0  03:52        2.62
  jd50                 JUNCTION     2.87     3.00   278.00     0  01:18        3.00
  jd51                 JUNCTION     2.79     3.00   313.00     0  01:36        3.00
  jd52                 JUNCTION     0.82     3.00   326.00     0  01:53        2.02
  jd53                 JUNCTION     1.07     3.00   325.00     0  01:49        3.00
  jd54                 JUNCTION     0.33     0.69   326.69     0  04:00        0.69
  jd55                 JUNCTION     1.82     3.00   325.00     0  01:33        3.00
  jd56                 JUNCTION     0.22     0.45   327.45     0  04:00        0.45
  jd59                 JUNCTION     2.77     3.00   320.80     0  01:38        3.00
  jd60                 JUNCTION     2.86     3.00   319.00     0  01:19        3.00
  jd61                 JUNCTION     0.16     0.32   329.32     0  04:00        0.32
  jd62                 JUNCTION     0.07     0.13   335.13     0  04:00        0.13
  jd63                 JUNCTION     0.08     0.15   324.15     0  04:00        0.15
  jd64                 JUNCTION     2.61     3.00   321.00     0  01:37        2.96
  jd65                 JUNCTION     2.59     3.00   307.00     0  01:25        3.00
  jd66                 JUNCTION     2.85     3.00   304.00     0  01:22        3.00
  jd69                 JUNCTION     0.27     0.54   333.54     0  04:00        0.54
  jd79                 JUNCTION     2.83     3.00   274.00     0  01:19        3.00
  jd80                 JUNCTION     2.70     3.00   279.00     0  01:21        3.00
  jd81                 JUNCTION     0.17     0.33   288.33     0  04:00        0.33
  jd83                 JUNCTION     2.88     3.00   323.00     0  01:14        3.00
  jd84                 JUNCTION     0.72     3.00   326.00     0  03:12        3.00
  jd85                 JUNCTION     2.86     3.00   324.00     0  01:20        3.00
  jd87                 JUNCTION     2.86     3.00   322.00     0  01:20        3.00
  jd89                 JUNCTION     0.18     0.38   324.38     0  04:00        0.38
  jd90                 JUNCTION     0.16     0.31   328.31     0  04:00        0.31
  jd92                 JUNCTION     0.17     0.37   326.37     0  04:00        0.37
  jd93                 JUNCTION     1.06     3.00   327.00     0  01:53        3.00
  jd94                 JUNCTION     0.60     3.00   329.20     0  03:18        2.29
  jd95                 JUNCTION     0.73     3.00   330.00     0  03:18        2.84
  jd96                 JUNCTION     2.88     3.00   308.00     0  01:17        3.00
  jd97                 JUNCTION     0.75     3.00   330.20     0  03:18        3.00
  jd98                 JUNCTION     0.22     0.45   329.45     0  04:00        0.45
  jd99                 JUNCTION     2.85     3.00   327.00     0  01:22        3.00
  jd101                JUNCTION     0.13     0.23   321.23     0  04:00        0.23
  jd102                JUNCTION     0.53     3.00   327.00     0  03:22        2.56
  jd103                JUNCTION     0.13     0.24   318.24     0  04:00        0.24
  jd106                JUNCTION     2.82     3.00   287.00     0  01:29        3.00
  jd107                JUNCTION     0.24     0.45   332.45     0  04:00        0.45
  jd108                JUNCTION     1.22     2.08   328.08     0  01:19        1.59
  jd109                JUNCTION     0.19     0.37   343.37     0  04:00        0.37
  jd110                JUNCTION     2.87     3.00   327.00     0  01:19        3.00
  jd111                JUNCTION     0.08     0.15   344.15     0  04:00        0.15
  jd112                JUNCTION     0.11     0.19   334.19     0  04:00        0.19
  jd113                JUNCTION     0.11     0.22   348.22     0  04:00        0.22
  jd114                JUNCTION     2.85     3.00   317.00     0  01:23        3.00
  jd117                JUNCTION     1.49     3.00   319.00     0  01:26        3.00
  jd118                JUNCTION     0.10     0.20   330.20     0  04:00        0.20
  jd120                JUNCTION     0.19     0.43   327.43     0  04:00        0.43
  jd121                JUNCTION     0.19     0.37   320.37     0  04:00        0.37
  jd122                JUNCTION     2.84     3.00   276.00     0  01:24        3.00
  jd123                JUNCTION     2.83     3.00   276.20     0  01:26        3.00
  jd124                JUNCTION     2.89     3.00   271.00     0  01:12        3.00
  jd125                JUNCTION     1.61     3.00   278.00     0  01:33        3.00
  jd126                JUNCTION     2.88     3.00   275.00     0  01:15        3.00
  jd135                JUNCTION     0.16     0.34   289.34     0  04:00        0.34
  jd136                JUNCTION     0.31     0.63   341.63     0  04:00        0.63
  psk1                 OUTFALL      0.11     0.19   279.19     0  04:00        0.19
  psk2                 OUTFALL      0.15     0.26   270.26     0  04:00        0.26
  psk3                 OUTFALL      0.35     0.72   271.72     0  04:00        0.72
  psk4                 OUTFALL      0.00     0.00   280.00     0  00:00        0.00
  psk5                 OUTFALL      0.14     0.24   263.24     0  04:00        0.24
  psk6                 OUTFALL      0.10     0.17   259.17     0  04:00        0.17
  psk7                 OUTFALL      0.38     0.60   262.60     0  04:00        0.60
  psk8                 OUTFALL      0.00     0.00   317.00     0  00:00        0.00
  
  
  *******************
  Node Inflow Summary
  *******************
  
  -------------------------------------------------------------------------------------------------
                                  Maximum  Maximum                  Lateral       Total        Flow
                                  Lateral    Total  Time of Max      Inflow      Inflow     Balance
                                   Inflow   Inflow   Occurrence      Volume      Volume       Error
  Node                 Type           CMS      CMS  days hr:min    10^6 ltr    10^6 ltr     Percent
  -------------------------------------------------------------------------------------------------
  jd1                  JUNCTION     0.902    1.241     0  04:00        6.59        10.1       0.076
  jd2                  JUNCTION     1.398    1.833     0  04:00        10.1        13.7       0.148
  jd3                  JUNCTION     1.677    3.396     0  04:00        12.1        33.6       1.193
  jd4                  JUNCTION     2.019    2.240     0  04:00        14.6        16.3       0.179
  jd5                  JUNCTION     0.590    0.948     0  04:00        4.28        7.24       0.024
  jd6                  JUNCTION     0.681    0.681     0  04:00        4.94        4.94       0.030
  jd7                  JUNCTION     0.344    2.774     0  04:00        2.51          30       0.135
  jd8                  JUNCTION     0.478    1.424     0  04:00        3.48        19.6       0.860
  jd9                  JUNCTION     0.367    1.435     0  04:00        2.67        18.7       0.129
  jd10                 JUNCTION     0.978    1.236     0  04:00         7.1           9       1.125
  jd11                 JUNCTION     1.444    1.444     0  04:00        10.5        10.5      -0.013
  jd12                 JUNCTION     1.088    2.403     0  04:00        7.87        17.2       0.807
  jd13                 JUNCTION     1.971    1.971     0  04:00        14.3        14.3       0.027
  jd14                 JUNCTION     2.311    2.615     0  04:00        16.7        18.8       0.112
  jd15                 JUNCTION     0.951    1.919     0  04:00         6.9        14.9       0.356
  jd16                 JUNCTION     1.023    4.017     0  04:00        7.43          29       0.124
  jd17                 JUNCTION     2.139    4.294     0  04:00        15.5        36.7       1.731
  jd18                 JUNCTION     1.696    2.481     0  04:00        12.3        17.9       0.177
  jd19                 JUNCTION     1.574    2.800     0  04:00        11.4        22.2       0.093
  jd20                 JUNCTION     1.308    1.560     0  04:00        9.48        14.5       0.201
  jd21                 JUNCTION     0.607    3.392     0  04:00        4.39        31.5       1.062
  jd22                 JUNCTION     1.069    2.065     0  04:00        7.73        16.3       0.498
  jd23                 JUNCTION     1.057    3.139     0  04:00        7.66          22       0.015
  jd24                 JUNCTION     1.736    1.736     0  04:00        12.6        12.6       0.005
  jd25                 JUNCTION     1.365    1.991     0  04:00        9.89        14.4       0.094
  jd26                 JUNCTION     1.987    3.107     0  04:00        14.4        23.5       0.096
  jd27                 JUNCTION     2.044    2.701     0  04:00        14.8        22.9       0.123
  jd28                 JUNCTION     2.787    3.606     0  04:00        20.1        27.3       0.481
  jd29                 JUNCTION     1.118    1.118     0  04:00         8.1         8.1      -0.026
  jd30                 JUNCTION     1.163    3.069     0  04:00        8.41          24       0.064
  jd31                 JUNCTION     0.777    1.627     0  04:00        5.62        12.2       3.795
  jd32                 JUNCTION     1.578    4.911     0  04:00        11.4        43.7       0.567
  jd33                 JUNCTION     1.554    2.605     0  04:00        11.3          19       0.050
  jd34                 JUNCTION     1.922    1.922     0  04:00          14          14       0.017
  jd35                 JUNCTION     1.754    3.935     0  04:00        12.7        37.8       0.351
  jd36                 JUNCTION     2.976    4.014     0  04:00        21.5        32.8       0.105
  jd37                 JUNCTION     3.130    3.130     0  04:00        22.7        22.7       0.135
  jd38                 JUNCTION     2.876    3.738     0  04:00        20.9        31.8       0.177
  jd39                 JUNCTION     1.993    5.184     0  04:00        14.5        51.4       0.990
  jd40                 JUNCTION     3.395    5.585     0  04:00        24.6        52.4       0.134
  jd41                 JUNCTION     2.385    7.518     0  04:00        17.3        63.9       3.431
  jd42                 JUNCTION     3.125    3.426     0  04:00        22.6        24.8       0.162
  jd43                 JUNCTION     3.511    5.720     0  04:00        25.6        43.7       0.221
  jd44                 JUNCTION     4.700    7.542     0  04:00        34.1        69.4       0.099
  jd45                 JUNCTION     1.903    4.128     0  04:00        13.8        43.8       0.735
  jd46                 JUNCTION     0.868    0.868     0  04:00        6.28        6.28       0.426
  jd47                 JUNCTION     2.806    2.806     0  04:00        20.4        20.4      -0.101
  jd48                 JUNCTION     0.776    0.776     0  04:00         5.7         5.7      -0.033
  jd49                 JUNCTION     3.809    3.809     0  04:00        27.5        27.5       0.105
  jd50                 JUNCTION     3.953    7.851     0  03:52        28.7        73.4       0.578
  jd51                 JUNCTION     0.826    3.800     0  04:00        6.01        27.7       5.221
  jd52                 JUNCTION     1.685    5.201     0  03:16        12.2        36.5       0.182
  jd53                 JUNCTION     0.937    3.549     0  04:00        6.78        32.2       0.056
  jd54                 JUNCTION     0.504    2.504     0  04:00        3.65        18.2       0.122
  jd55                 JUNCTION     0.918    3.858     0  04:00        6.66        24.1       3.197
  jd56                 JUNCTION     0.558    1.633     0  04:00        4.05        11.8       0.048
  jd59                 JUNCTION     0.554    2.748     0  04:00        4.02        19.6       4.152
  jd60                 JUNCTION     0.992    2.104     0  04:00        7.19        15.3       0.837
  jd61                 JUNCTION     1.113    1.251     0  04:00        8.12        9.14       0.041
  jd62                 JUNCTION     0.447    0.447     0  04:00        3.29        3.29      -0.027
  jd63                 JUNCTION     0.615    0.615     0  04:00        4.46        4.46      -0.009
  jd64                 JUNCTION     0.518    1.278     0  04:00        3.75        9.28       4.151
  jd65                 JUNCTION     8.843    8.843     0  04:00          64          64       0.087
  jd66                 JUNCTION     1.162    3.370     0  04:00        8.51        24.7       1.314
  jd69                 JUNCTION     2.148    2.208     0  04:00        15.8        16.2       0.029
  jd79                 JUNCTION     2.091    3.007     0  04:00        15.1        25.4       0.699
  jd80                 JUNCTION     2.323    2.931     0  04:00        16.8        22.1       0.536
  jd81                 JUNCTION     1.765    1.765     0  04:00        12.8        12.8       0.008
  jd83                 JUNCTION     1.839    2.417     0  04:00        13.4        17.7       0.482
  jd84                 JUNCTION     2.337    2.337     0  04:00        17.1        17.1       0.032
  jd85                 JUNCTION     0.531    0.869     0  04:00        3.86        6.35       1.347
  jd87                 JUNCTION     0.435    1.049     0  04:00        3.16        7.64       0.987
  jd89                 JUNCTION     0.507    0.507     0  04:00        3.67        3.67       0.038
  jd90                 JUNCTION     0.517    0.517     0  04:00        3.75        3.75      -0.001
  jd92                 JUNCTION     0.435    0.435     0  04:00        3.15        3.15      -0.004
  jd93                 JUNCTION     0.936    1.896     0  04:00        6.78        14.4       0.134
  jd94                 JUNCTION     0.060    0.975     0  03:17       0.432         7.6      -0.027
  jd95                 JUNCTION     0.113    0.916     0  03:18        0.82        7.19       0.243
  jd96                 JUNCTION     0.848    1.131     0  04:00        6.25        8.31       1.164
  jd97                 JUNCTION     0.915    0.915     0  04:00        6.66        6.66       0.041
  jd98                 JUNCTION     0.511    0.511     0  04:00        3.71        3.71       0.027
  jd99                 JUNCTION     0.246    0.543     0  04:00         1.8        5.03       1.129
  jd101                JUNCTION     0.669    1.336     0  04:00        4.87        9.69      -0.060
  jd102                JUNCTION     0.667    0.667     0  04:00        4.82        4.82       0.082
  jd103                JUNCTION     0.459    0.459     0  04:00        3.33        3.33      -0.010
  jd106                JUNCTION     0.359    2.061     0  04:00        2.61        15.2       2.609
  jd107                JUNCTION     0.519    1.705     0  04:00        3.77        12.4       0.103
  jd108                JUNCTION     0.564    0.564     0  04:00        4.13        4.14       1.578
  jd109                JUNCTION     0.943    0.943     0  04:00        6.84        6.84       0.011
  jd110                JUNCTION     0.716    1.066     0  04:00        5.31        7.88       1.941
  jd111                JUNCTION     0.594    0.594     0  04:00        4.36        4.36      -0.036
  jd112                JUNCTION     0.699    1.943     0  04:00        5.07        14.2       0.024
  jd113                JUNCTION     0.470    0.470     0  04:00        3.47        3.47      -0.050
  jd114                JUNCTION     0.567    4.283     0  04:00        4.12        44.6       0.696
  jd117                JUNCTION     0.523    1.707     0  04:00        3.79        12.5       1.257
  jd118                JUNCTION     0.479    0.479     0  04:00        3.47        3.47      -0.019
  jd120                JUNCTION     0.598    0.598     0  04:00        4.33        4.33       0.004
  jd121                JUNCTION     0.738    0.738     0  04:00        5.38        5.38       0.026
  jd122                JUNCTION     1.753    5.923     0  04:00        12.7        50.4       1.109
  jd123                JUNCTION     1.802    4.237     0  04:00        13.1        47.1       1.472
  jd124                JUNCTION     2.600    3.673     0  04:00        18.8        38.9       0.150
  jd125                JUNCTION     2.527    4.202     0  04:00        18.3        45.7       0.060
  jd126                JUNCTION     3.668    4.531     0  04:00        26.6        35.6       0.284
  jd135                JUNCTION     0.933    0.933     0  04:00        6.77        6.77       0.007
  jd136                JUNCTION     0.773    1.243     0  04:00        5.68        9.16       0.082
  psk1                 OUTFALL      0.000    0.941     0  04:00           0        6.81       0.000
  psk2                 OUTFALL      0.000    2.339     0  04:00           0        17.9       0.000
  psk3                 OUTFALL      0.000    4.015     0  04:00           0        28.9       0.000
  psk4                 OUTFALL      0.000    0.000     0  00:00           0           0       0.000 ltr
  psk5                 OUTFALL      0.000    0.806     0  04:00           0        6.58       0.000
  psk6                 OUTFALL      0.000    0.727     0  04:00           0        5.55       0.000
  psk7                 OUTFALL      0.000    2.774     0  04:00           0          30       0.000
  psk8                 OUTFALL      0.000    0.000     0  00:00           0           0       0.000 ltr
  
  
  **********************
  Node Surcharge Summary
  **********************
  
  Surcharging occurs when water rises above the top of the highest conduit.
  ---------------------------------------------------------------------
                                               Max. Height   Min. Depth
                                   Hours       Above Crown    Below Rim
  Node                 Type      Surcharged         Meters       Meters
  ---------------------------------------------------------------------
  jd2                  JUNCTION        1.20          2.200        0.000
  jd3                  JUNCTION        6.57          2.200        0.000
  jd4                  JUNCTION        4.36          2.200        0.000
  jd8                  JUNCTION        5.99          2.200        0.000
  jd9                  JUNCTION        5.16          2.200        0.000
  jd10                 JUNCTION        6.65          2.400        0.000
  jd12                 JUNCTION        6.66          2.400        0.000
  jd14                 JUNCTION        0.92          2.400        0.000
  jd17                 JUNCTION        6.02          2.200        0.000
  jd18                 JUNCTION        0.86          2.000        0.000
  jd19                 JUNCTION        2.32          2.200        0.000
  jd21                 JUNCTION        6.58          2.200        0.000
  jd22                 JUNCTION        6.55          2.400        0.000
  jd23                 JUNCTION        0.71          2.000        0.000
  jd25                 JUNCTION        0.51          2.000        0.000
  jd26                 JUNCTION        0.94          2.400        0.000
  jd27                 JUNCTION        0.53          2.400        0.000
  jd28                 JUNCTION        6.68          2.400        0.000
  jd31                 JUNCTION        6.48          2.200        0.000
  jd32                 JUNCTION        6.64          2.200        0.000
  jd34                 JUNCTION        0.80          2.400        0.000
  jd35                 JUNCTION        6.73          2.400        0.000
  jd36                 JUNCTION        1.54          2.400        0.000
  jd37                 JUNCTION        1.43          2.400        0.000
  jd38                 JUNCTION        0.65          2.000        0.000
  jd39                 JUNCTION        6.58          2.000        0.000
  jd40                 JUNCTION        2.24          2.200        0.000
  jd41                 JUNCTION        6.41          1.000        0.000
  jd43                 JUNCTION        1.90          2.200        0.000
  jd44                 JUNCTION        2.03          2.000        0.000
  jd45                 JUNCTION        6.59          2.000        0.000
  jd46                 JUNCTION        0.50          2.200        0.000
  jd49                 JUNCTION        0.17          2.200        0.000
  jd50                 JUNCTION        6.69          2.200        0.000
  jd51                 JUNCTION        6.40          1.350        0.000
  jd52                 JUNCTION        1.22          1.500        0.000
  jd53                 JUNCTION        1.45          1.800        0.000
  jd55                 JUNCTION        2.35          1.500        0.000
  jd59                 JUNCTION        6.36          1.500        0.000
  jd60                 JUNCTION        6.67          2.400        0.000
  jd64                 JUNCTION        6.37          1.800        0.000
  jd65                 JUNCTION        5.62          2.400        0.000
  jd66                 JUNCTION        6.63          2.200        0.000
  jd79                 JUNCTION        6.67          2.400        0.000
  jd80                 JUNCTION        6.34          2.400        0.000
  jd83                 JUNCTION        6.77          2.400        0.000
  jd84                 JUNCTION        0.88          2.400        0.000
  jd85                 JUNCTION        6.66          2.400        0.000
  jd87                 JUNCTION        6.66          2.400        0.000
  jd93                 JUNCTION        1.61          2.200        0.000
  jd94                 JUNCTION        0.91          2.200        0.000
  jd95                 JUNCTION        0.85          2.200        0.000
  jd96                 JUNCTION        6.72          2.200        0.000
  jd97                 JUNCTION        0.87          2.200        0.000
  jd99                 JUNCTION        6.63          2.400        0.000
  jd102                JUNCTION        0.68          2.400        0.000
  jd106                JUNCTION        6.51          2.000        0.000
  jd108                JUNCTION        6.67          1.078        0.922
  jd110                JUNCTION        6.67          2.000        0.000
  jd114                JUNCTION        6.61          2.000        0.000
  jd117                JUNCTION        6.57          2.200        0.000
  jd122                JUNCTION        6.59          2.200        0.000
  jd123                JUNCTION        6.56          2.200        0.000
  jd124                JUNCTION        6.79          2.400        0.000
  jd125                JUNCTION        3.03          2.200        0.000
  jd126                JUNCTION        6.74          2.400        0.000
  
  
  *********************
  Node Flooding Summary
  *********************
  
  Flooding refers to all water that overflows a node, whether it ponds or not.
  --------------------------------------------------------------------------
                                                             Total   Maximum
                                 Maximum   Time of Max       Flood    Ponded
                        Hours       Rate    Occurrence      Volume     Depth
  Node                 Flooded       CMS   days hr:min    10^6 ltr    Meters
  --------------------------------------------------------------------------
  jd2                     0.86     0.624      0  04:00       1.488     0.000
  jd3                     6.57     3.396      0  04:00      33.189     0.000
  jd4                     2.38     1.730      0  04:00       6.976     0.000
  jd8                     2.01     0.404      0  01:26       1.418     0.000
  jd9                     1.96     0.580      0  01:29       2.556     0.000
  jd10                    6.65     1.236      0  04:00       8.905     0.000
  jd12                    6.66     2.403      0  04:00      17.065     0.000
  jd14                    0.84     0.785      0  04:00       1.815     0.000
  jd17                    4.44     3.465      0  04:00      17.961     0.000
  jd18                    0.78     1.003      0  03:19       2.373     0.000
  jd19                    1.76     1.732      0  04:00       6.199     0.000
  jd21                    6.55     3.392      0  04:00      30.878     0.000
  jd22                    1.86     1.242      0  04:00       4.525     0.000
  jd23                    0.47     0.425      0  03:25       0.172     0.000
  jd25                    0.01     0.448      0  03:32       0.004     0.000
  jd26                    0.89     1.211      0  04:00       3.146     0.000
  jd27                    0.01     0.233      0  03:32       0.002     0.000
  jd28                    6.68     3.606      0  04:00      27.209     0.000
  jd31                    0.01     1.116      0  01:31       0.013     0.000
  jd32                    6.64     4.911      0  04:00      43.460     0.000
  jd34                    0.64     0.153      0  03:16       0.231     0.000
  jd35                    6.73     3.935      0  04:00      37.681     0.000
  jd36                    1.33     1.924      0  04:00       5.570     0.000
  jd37                    1.29     1.728      0  04:00       4.789     0.000
  jd38                    0.01     0.425      0  03:26       0.004     0.000
  jd39                    6.58     5.184      0  04:00      50.928     0.000
  jd40                    2.03     3.023      0  04:00      12.906     0.000
  jd41                    6.41     7.517      0  04:00      61.752     0.000
  jd43                    1.81     3.889      0  04:00      15.461     0.000
  jd44                    1.60     3.641      0  04:00      11.913     0.000
  jd45                    6.59     4.128      0  04:00      43.478     0.000
  jd46                    0.26     0.174      0  03:35       0.013     0.000
  jd49                    0.01     0.281      0  03:52       0.004     0.000
  jd50                    6.69     7.849      0  03:52      72.989     0.000
  jd51                    6.40     3.800      0  04:00      26.284     0.000
  jd52                    0.02     2.778      0  03:16       0.090     0.000
  jd53                    0.89     1.246      0  04:00       3.271     0.000
  jd55                    1.19     3.858      0  04:00      11.637     0.000
  jd59                    6.36     2.748      0  04:00      18.767     0.000
  jd60                    6.67     2.104      0  04:00      15.209     0.000
  jd64                    0.01     0.643      0  01:37       0.011     0.000
  jd65                    5.45     7.750      0  04:00      39.523     0.000
  jd66                    6.63     3.370      0  04:00      24.382     0.000
  jd79                    5.98     2.755      0  04:00      20.176     0.000
  jd80                    5.76     2.773      0  04:00      17.773     0.000
  jd83                    6.77     2.417      0  04:00      17.667     0.000
  jd84                    0.84     0.497      0  04:00       1.295     0.000
  jd85                    6.66     0.869      0  04:00       6.264     0.000
  jd87                    6.66     1.049      0  04:00       7.569     0.000
  jd93                    0.82     0.710      0  04:00       1.785     0.000
  jd94                    0.01     0.601      0  03:18       0.010     0.000
  jd95                    0.01     0.041      0  03:18       0.001     0.000
  jd96                    6.72     1.131      0  04:00       8.212     0.000
  jd97                    0.71     0.131      0  03:19       0.285     0.000
  jd99                    6.63     0.543      0  04:00       4.974     0.000
  jd102                   0.01     0.059      0  03:22       0.000     0.000
  jd106                   6.51     2.061      0  04:00      14.779     0.000
  jd110                   6.67     1.066      0  04:00       7.735     0.000
  jd114                   6.61     4.283      0  04:00      44.287     0.000
  jd117                   0.81     1.052      0  01:26       0.706     0.000
  jd122                   6.59     5.923      0  04:00      49.739     0.000
  jd123                   6.56     3.922      0  04:00      39.017     0.000
  jd124                   6.79     3.673      0  04:00      38.803     0.000
  jd125                   1.88     1.816      0  04:00       6.528     0.000
  jd126                   6.74     4.530      0  04:00      35.462     0.000
  
  
  ***********************
  Outfall Loading Summary
  ***********************
  
  -----------------------------------------------------------
                         Flow       Avg       Max       Total
                         Freq      Flow      Flow      Volume
  Outfall Node           Pcnt       CMS       CMS    10^6 ltr
  -----------------------------------------------------------
  psk1                  97.07     0.344     0.941       6.810
  psk2                  97.05     0.902     2.339      17.916
  psk3                  97.07     1.460     4.015      28.926
  psk4                   0.00     0.000     0.000       0.000
  psk5                  97.07     0.326     0.806       6.575
  psk6                  97.07     0.277     0.727       5.546
  psk7                  97.07     1.409     2.774      30.001
  psk8                   0.00     0.000     0.000       0.000
  -----------------------------------------------------------
  System                72.80     4.717     0.000      95.774
  
  
  ********************
  Link Flow Summary
  ********************
  
  -----------------------------------------------------------------------------
                                 Maximum  Time of Max   Maximum    Max/    Max/
                                  |Flow|   Occurrence   |Veloc|    Full    Full
  Link                 Type          CMS  days hr:min     m/sec    Flow   Depth
  -----------------------------------------------------------------------------
  GQ1                  CONDUIT     0.355     0  03:21      1.97    0.93    0.70
  GQ2                  CONDUIT     1.580     0  04:00      2.79    0.75    0.68
  GQ3                  CONDUIT     0.941     0  04:00      7.03    0.04    0.13
  GQ4                  CONDUIT     0.510     0  03:27      1.80    1.00    1.00
  GQ5                  CONDUIT     1.208     0  03:31      2.40    1.00    1.00
  GQ6                  CONDUIT     0.435     0  04:00      1.26    0.20    0.65
  GQ7                  CONDUIT     1.675     0  02:01      3.66    1.00    1.00
  GQ8                  CONDUIT     1.011     0  04:00      2.01    0.97    1.00
  GQ9                  CONDUIT     2.823     0  03:48      5.74    0.99    1.00
  GQ10                 CONDUIT     1.133     0  07:04      4.10    1.04    1.00
  GQ11                 CONDUIT     0.301     0  04:00      2.01    0.32    0.57
  GQ12                 CONDUIT     0.367     0  04:00      1.68    0.40    0.72
  GQ13                 CONDUIT     0.221     0  04:00      0.69    0.11    0.61
  GQ14                 CONDUIT     0.118     0  04:00      1.20    0.17    0.25
  GQ15                 CONDUIT     0.240     0  04:00      4.41    0.97    0.73
  GQ16                 CONDUIT     1.906     0  04:00      4.10    0.92    0.63
  GQ17                 CONDUIT     0.563     0  04:00      2.16    0.18    0.51
  GQ18                 CONDUIT     1.105     0  04:00      2.50    4.98    0.87
  GQ19                 CONDUIT     0.763     0  04:00      2.61    0.09    0.40
  GQ20                 CONDUIT     0.167     0  04:00      0.52    0.09    0.60
  GQ21                 CONDUIT     0.618     0  04:00      1.60    0.19    0.65
  GQ22                 CONDUIT     0.626     0  04:00      1.86    0.19    0.65
  GQ23                 CONDUIT     1.443     0  04:07      2.33    0.71    1.00
  GQ24                 CONDUIT     2.020     0  03:42      4.02    1.00    1.00
  GQ25                 CONDUIT     1.051     0  04:00      4.09    1.18    0.86
  GQ26                 CONDUIT     0.729     0  03:32      2.84    0.85    0.86
  GQ27                 CONDUIT     0.997     0  03:40      3.52    1.00    1.00
  GQ28                 CONDUIT     0.334     0  04:00      0.82    0.36    0.76
  GQ29                 CONDUIT     1.627     0  04:00      3.24    0.76    1.00
  GQ30                 CONDUIT     0.824     0  03:23      2.91    1.00    1.00
  GQ31                 CONDUIT     0.747     0  03:39      2.64    1.00    1.00
  GQ32                 CONDUIT     0.739     0  03:31      2.96    1.19    1.00
  GQ33                 CONDUIT     1.434     0  03:33      5.07    1.00    1.00
  GQ34                 CONDUIT     0.499     0  04:00      1.89    0.78    0.88
  GQ35                 CONDUIT     0.711     0  03:11      2.52    1.32    1.00
  GQ36                 CONDUIT     0.974     0  03:11      3.45    1.21    1.00
  GQ37                 CONDUIT     0.617     0  04:00      2.18    0.88    1.00
  GQ38                 CONDUIT     0.202     0  04:00      0.93    0.29    0.72
  GQ39                 CONDUIT     0.782     0  03:54      2.76    1.00    1.00
  GQ40                 CONDUIT     0.742     0  04:00      2.63    0.92    1.00
  GQ41                 CONDUIT     1.832     0  04:00      2.33    0.85    1.00
  GQ42                 CONDUIT     1.359     0  03:26      2.70    1.00    1.00
  GQ43                 CONDUIT     2.311     0  01:46      4.70    1.03    1.00
  GQ44                 CONDUIT     0.946     0  03:31      1.88    1.00    1.00
  GQ45                 CONDUIT     1.225     0  04:00      3.00    0.50    0.76
  GQ46                 CONDUIT     1.068     0  01:51      2.17    1.00    1.00
  GQ47                 CONDUIT     0.258     0  04:00      1.28    0.24    0.67
  GQ48                 CONDUIT     0.256     0  04:00      1.28    0.24    0.67
  GQ49                 CONDUIT     1.059     0  04:00      4.86    0.40    0.72
  GQ50                 CONDUIT     0.305     0  04:00      1.40    0.40    0.72
  GQ51                 CONDUIT     0.995     0  03:23      3.61    1.52    1.00
  GQ52                 CONDUIT     0.852     0  04:00      1.69    1.13    1.00
  GQ53                 CONDUIT     2.225     0  03:52      2.83    1.00    1.00
  GQ54                 CONDUIT     0.637     0  04:00      2.75    0.55    0.76
  GQ55                 CONDUIT     0.475     0  04:00      2.27    0.32    0.70
  GQ56                 CONDUIT     2.006     0  01:35      4.28    1.10    1.00
  GQ57                 CONDUIT     0.948     0  04:00      2.24    0.62    0.78
  GQ58                 CONDUIT     1.975     0  04:00      4.67    0.62    0.78
  GQ59                 CONDUIT     1.203     0  03:43      2.39    1.00    1.00
  GQ60                 CONDUIT     2.721     0  03:16      1.66    0.66    1.00
  GQ61                 CONDUIT     0.409     0  04:00      0.60    0.05    0.58
  GQ62                 CONDUIT     0.850     0  04:00      0.74    0.09    0.60
  GQ63                 CONDUIT     1.955     0  04:00      1.50    0.06    0.58
  GQ64                 CONDUIT     0.138     0  04:00      1.54    0.11    0.37
  GQ65                 CONDUIT     0.060     0  04:00      0.39    0.11    0.56
  GQ66                 CONDUIT     0.243     0  04:00      0.81    0.07    0.59
  GQ67                 CONDUIT     1.278     0  04:00      1.13    0.89    1.00
  GQ68                 CONDUIT     1.335     0  04:00      2.18    0.42    0.73
  GQ69                 CONDUIT     2.208     0  04:00      4.93    0.79    0.83
  GQ70                 CONDUIT     0.727     0  04:00      8.95    0.10    0.22
  GQ71                 CONDUIT     0.806     0  04:00      6.34    0.20    0.30
  GQ72                 CONDUIT     2.774     0  04:00      5.70    0.66    0.59
  GQ73                 CONDUIT     2.339     0  04:00     14.12    0.15    0.26
  GQ74                 CONDUIT     0.498     0  04:00      1.58    0.09    0.46
  GQ75                 CONDUIT     0.526     0  04:00      1.01    0.15    0.63
  GQ76                 CONDUIT     4.015     0  04:00      6.62    0.87    0.72
  GQ77                 CONDUIT     0.000     0  00:00      0.00    0.00    0.32
  GQ78                 CONDUIT     0.916     0  03:29      3.24    1.00    1.00
  GQ79                 CONDUIT     0.252     0  04:00      1.08    0.54    0.84
  GQ80                 CONDUIT     0.608     0  03:31      2.15    1.00    1.00
  GQ81                 CONDUIT     0.605     0  01:26      2.26    3.84    1.00
  GQ82                 CONDUIT     0.849     0  04:00      3.61    0.59    0.77
  GQ83                 CONDUIT     0.916     0  04:00      3.90    0.59    0.77
  GQ84                 CONDUIT     1.301     0  03:11      4.71    1.03    1.00
  GQ85                 CONDUIT     0.579     0  03:29      2.05    1.00    1.00
  GQ86                 CONDUIT     0.250     0  04:00      1.38    0.11    0.61
  GQ87                 CONDUIT     0.088     0  04:00      0.48    0.13    0.62
  GQ88                 CONDUIT     0.614     0  04:00      2.65    0.55    0.76
  GQ89                 CONDUIT     0.507     0  04:00      2.05    0.67    0.82
  GQ90                 CONDUIT     0.517     0  04:00      2.25    0.52    0.76
  GQ91                 CONDUIT     0.435     0  04:00      1.77    0.53    0.81
  GQ92                 CONDUIT     0.918     0  03:17      2.00    1.32    1.00
  GQ93                 CONDUIT     0.960     0  04:00      1.91    0.82    1.00
  GQ94                 CONDUIT     1.228     0  03:15      2.44    1.46    1.00
  GQ95                 CONDUIT     0.283     0  04:00      0.91    0.07    0.59
  GQ96                 CONDUIT     0.812     0  03:18      1.62    1.39    1.00
  GQ97                 CONDUIT     0.511     0  04:00      2.22    0.92    0.76
  GQ98                 CONDUIT     0.298     0  04:00      1.13    0.42    0.88
  GQ99                 CONDUIT     0.927     0  04:00      0.99    0.05    0.58
  GQ100                CONDUIT     0.667     0  04:00      3.19    1.15    0.69
  GQ101                CONDUIT     0.459     0  04:00      2.16    0.34    0.70
  GQ102                CONDUIT     1.893     0  04:00      4.55    0.57    0.77
  GQ103                CONDUIT     0.620     0  04:00      2.19    0.95    1.00
  GQ104                CONDUIT     1.390     0  03:30      5.02    1.01    1.00
  GQ105                CONDUIT     1.009     0  01:26      2.01    3.21    1.00
  GQ106                CONDUIT     0.492     0  04:00      2.17    0.49    0.75
  GQ107                CONDUIT     1.114     0  03:20      3.94    1.00    1.00
  GQ108                CONDUIT     0.829     0  03:26      1.65    1.00    1.00
  GQ109                CONDUIT     0.377     0  04:00      1.59    0.51    0.78
  GQ110                CONDUIT     0.620     0  04:00      1.26    0.09    0.60
  GQ111                CONDUIT     0.555     0  04:00      2.33    0.51    0.78
  GQ112                CONDUIT     1.705     0  04:00      3.37    0.30    0.48
  GQ113                CONDUIT     0.942     0  04:00      4.52    0.71    0.69
  GQ114                CONDUIT     0.564     0  04:00      0.92    0.23    0.73
  GQ115                CONDUIT     0.244     0  04:00      1.11    0.03    0.25
  GQ116                CONDUIT     0.350     0  04:00      0.75    0.05    0.58
  GQ117                CONDUIT     1.243     0  04:00      4.82    0.78    0.51
  GQ118                CONDUIT     0.470     0  04:00      2.43    0.16    0.53
  GQ119                CONDUIT     2.302     0  03:24      4.58    1.00    1.00
  GQ120                CONDUIT     0.000     0  00:00      0.00    0.00    0.50
  GQ121                CONDUIT     1.414     0  03:31      2.81    1.00    1.00
  GQ122                CONDUIT     0.706     0  04:00      2.15    0.13    0.62
  GQ123                CONDUIT     0.479     0  04:00      2.40    0.23    0.66
  GQ124                CONDUIT     0.296     0  04:00      1.17    0.13    0.55
  GQ125                CONDUIT     0.598     0  04:00      2.31    0.67    0.86
  GQ126                CONDUIT     0.738     0  04:00      3.00    0.70    0.81
  GQ127                CONDUIT     0.864     0  03:13      1.75    1.10    1.00
  GQ128                CONDUIT     2.503     0  04:00      2.90    0.55    0.79
  GQ129                CONDUIT     1.313     0  01:54      2.61    1.00    1.00
  GQ130                CONDUIT     1.073     0  03:35      3.79    1.00    1.00
  GQ131                CONDUIT     0.862     0  03:39      3.05    1.00    1.00
  
  
  ***************************
  Flow Classification Summary
  ***************************
  
  -------------------------------------------------------------------------------------
                      Adjusted    ---------- Fraction of Time in Flow Class ---------- 
                       /Actual         Up    Down  Sub   Sup   Up    Down  Norm  Inlet 
  Conduit               Length    Dry  Dry   Dry   Crit  Crit  Crit  Crit  Ltd   Ctrl  
  -------------------------------------------------------------------------------------
  GQ1                     1.00   0.03  0.00  0.00  0.18  0.79  0.00  0.00  0.01  0.00
  GQ2                     1.00   0.03  0.00  0.00  0.03  0.95  0.00  0.00  0.84  0.00
  GQ3                     1.00   0.03  0.00  0.00  0.00  0.97  0.00  0.00  0.32  0.00
  GQ4                     1.00   0.03  0.00  0.00  0.96  0.01  0.00  0.00  0.14  0.00
  GQ5                     1.00   0.03  0.00  0.00  0.97  0.00  0.00  0.00  0.61  0.00
  GQ6                     1.00   0.03  0.00  0.00  0.96  0.01  0.00  0.00  0.87  0.00
  GQ7                     1.00   0.03  0.00  0.00  0.47  0.50  0.00  0.00  0.27  0.00
  GQ8                     1.00   0.03  0.00  0.00  0.97  0.00  0.00  0.00  0.76  0.00
  GQ9                     1.00   0.03  0.00  0.00  0.60  0.37  0.00  0.00  0.79  0.00
  GQ10                    1.00   0.03  0.00  0.00  0.90  0.08  0.00  0.00  0.15  0.00
  GQ11                    1.00   0.03  0.00  0.00  0.30  0.68  0.00  0.00  0.86  0.00
  GQ12                    1.00   0.03  0.00  0.00  0.96  0.01  0.00  0.00  0.87  0.00
  GQ13                    1.00   0.03  0.00  0.00  0.97  0.00  0.00  0.00  0.87  0.00
  GQ14                    1.00   0.03  0.00  0.00  0.88  0.09  0.00  0.00  0.00  0.00
  GQ15                    1.00   0.03  0.00  0.00  0.00  0.97  0.00  0.00  0.01  0.00
  GQ16                    1.00   0.03  0.00  0.00  0.00  0.97  0.00  0.00  0.00  0.00
  GQ17                    1.00   0.03  0.00  0.00  0.66  0.31  0.00  0.00  0.87  0.00
  GQ18                    1.00   0.03  0.00  0.00  0.91  0.06  0.00  0.00  0.03  0.00
  GQ19                    1.00   0.03  0.00  0.00  0.56  0.42  0.00  0.00  0.87  0.00
  GQ20                    1.00   0.03  0.00  0.00  0.97  0.00  0.00  0.00  0.87  0.00
  GQ21                    1.00   0.03  0.00  0.00  0.57  0.40  0.00  0.00  0.87  0.00
  GQ22                    1.00   0.03  0.00  0.00  0.18  0.79  0.00  0.00  0.87  0.00
  GQ23                    1.00   0.03  0.00  0.00  0.19  0.78  0.00  0.00  0.24  0.00
  GQ24                    1.00   0.03  0.00  0.00  0.90  0.07  0.00  0.00  0.70  0.00
  GQ25                    1.00   0.03  0.00  0.00  0.00  0.97  0.00  0.00  0.01  0.00
  GQ26                    1.00   0.03  0.00  0.00  0.02  0.95  0.00  0.00  0.75  0.00
  GQ27                    1.00   0.03  0.00  0.00  0.79  0.18  0.00  0.00  0.64  0.00
  GQ28                    1.00   0.03  0.00  0.00  0.97  0.00  0.00  0.00  0.68  0.00
  GQ29                    1.00   0.03  0.00  0.00  0.97  0.00  0.00  0.00  0.05  0.00
  GQ30                    1.00   0.03  0.00  0.00  0.95  0.02  0.00  0.00  0.03  0.00
  GQ31                    1.00   0.03  0.00  0.00  0.97  0.00  0.00  0.00  0.67  0.00
  GQ32                    1.00   0.03  0.00  0.00  0.16  0.81  0.00  0.00  0.01  0.00
  GQ33                    1.00   0.03  0.00  0.00  0.42  0.55  0.00  0.00  0.59  0.00
  GQ34                    1.00   0.03  0.00  0.00  0.95  0.02  0.00  0.00  0.77  0.00
  GQ35                    1.00   0.03  0.00  0.00  0.38  0.59  0.00  0.00  0.57  0.00
  GQ36                    1.00   0.03  0.00  0.00  0.31  0.66  0.00  0.00  0.62  0.00
  GQ37                    1.00   0.03  0.00  0.00  0.97  0.00  0.00  0.00  0.66  0.00
  GQ38                    1.00   0.03  0.00  0.00  0.97  0.00  0.00  0.00  0.69  0.00
  GQ39                    1.00   0.03  0.00  0.00  0.94  0.03  0.00  0.00  0.65  0.00
  GQ40                    1.00   0.03  0.00  0.00  0.19  0.78  0.00  0.00  0.76  0.00
  GQ41                    1.00   0.03  0.00  0.00  0.97  0.00  0.00  0.00  0.59  0.00
  GQ42                    1.00   0.03  0.00  0.00  0.97  0.00  0.00  0.00  0.47  0.00
  GQ43                    1.00   0.03  0.00  0.00  0.35  0.62  0.00  0.00  0.62  0.00
  GQ44                    1.00   0.03  0.00  0.00  0.97  0.00  0.00  0.00  0.12  0.00
  GQ45                    1.00   0.03  0.00  0.00  0.36  0.61  0.00  0.00  0.78  0.00
  GQ46                    1.00   0.03  0.00  0.00  0.89  0.08  0.00  0.00  0.43  0.00
  GQ47                    1.00   0.03  0.00  0.00  0.97  0.00  0.00  0.00  0.87  0.00
  GQ48                    1.00   0.03  0.00  0.00  0.97  0.00  0.00  0.00  0.87  0.00
  GQ49                    1.00   0.03  0.00  0.00  0.59  0.38  0.00  0.00  0.87  0.00
  GQ50                    1.00   0.03  0.00  0.00  0.97  0.00  0.00  0.00  0.87  0.00
  GQ51                    1.00   0.03  0.00  0.00  0.18  0.79  0.00  0.00  0.60  0.00
  GQ52                    1.00   0.03  0.00  0.00  0.97  0.00  0.00  0.00  0.74  0.00
  GQ53                    1.00   0.03  0.00  0.00  0.97  0.00  0.00  0.00  0.51  0.00
  GQ54                    1.00   0.03  0.00  0.00  0.78  0.19  0.00  0.00  0.87  0.00
  GQ55                    1.00   0.03  0.00  0.00  0.79  0.18  0.00  0.00  0.87  0.00
  GQ56                    1.00   0.03  0.00  0.00  0.38  0.59  0.00  0.00  0.55  0.00
  GQ57                    1.00   0.03  0.00  0.00  0.97  0.00  0.00  0.00  0.87  0.00
  GQ58                    1.00   0.03  0.00  0.00  0.64  0.33  0.00  0.00  0.87  0.00
  GQ59                    1.00   0.03  0.00  0.00  0.97  0.00  0.00  0.00  0.51  0.00
  GQ60                    1.00   0.03  0.00  0.00  0.97  0.00  0.00  0.00  0.07  0.00
  GQ61                    1.00   0.03  0.00  0.00  0.97  0.00  0.00  0.00  0.87  0.00
  GQ62                    1.00   0.03  0.00  0.00  0.97  0.00  0.00  0.00  0.87  0.00
  GQ63                    1.00   0.03  0.00  0.00  0.96  0.01  0.00  0.00  0.87  0.00
  GQ64                    1.00   0.03  0.00  0.00  0.23  0.74  0.00  0.00  0.87  0.00
  GQ65                    1.00   0.03  0.00  0.00  0.97  0.00  0.00  0.00  0.87  0.00
  GQ66                    1.00   0.03  0.00  0.00  0.96  0.01  0.00  0.00  0.87  0.00
  GQ67                    1.00   0.03  0.00  0.00  0.97  0.00  0.00  0.00  0.02  0.00
  GQ68                    1.00   0.03  0.00  0.00  0.97  0.00  0.00  0.00  0.87  0.00
  GQ69                    1.00   0.03  0.00  0.00  0.60  0.37  0.00  0.00  0.87  0.00
  GQ70                    1.00   0.03  0.00  0.00  0.00  0.97  0.00  0.00  0.00  0.00
  GQ71                    1.00   0.03  0.00  0.00  0.00  0.97  0.00  0.00  0.09  0.00
  GQ72                    1.00   0.03  0.00  0.00  0.00  0.97  0.00  0.00  0.45  0.00
  GQ73                    1.00   0.03  0.00  0.00  0.00  0.97  0.00  0.00  0.00  0.00
  GQ74                    1.00   0.03  0.00  0.00  0.89  0.09  0.00  0.00  0.87  0.00
  GQ75                    1.00   0.03  0.00  0.00  0.97  0.00  0.00  0.00  0.87  0.00
  GQ76                    1.00   0.03  0.00  0.00  0.00  0.97  0.00  0.00  0.35  0.00
  GQ77                    1.00   0.03  0.97  0.00  0.00  0.00  0.00  0.00  0.00  0.00
  GQ78                    1.00   0.03  0.00  0.00  0.88  0.09  0.00  0.00  0.58  0.00
  GQ79                    1.00   0.03  0.00  0.00  0.97  0.00  0.00  0.00  0.04  0.00
  GQ80                    1.00   0.03  0.00  0.00  0.97  0.00  0.00  0.00  0.27  0.00
  GQ81                    1.00   0.03  0.00  0.00  0.97  0.00  0.00  0.00  0.00  0.00
  GQ82                    1.00   0.03  0.00  0.00  0.65  0.32  0.00  0.00  0.86  0.00
  GQ83                    1.00   0.03  0.00  0.00  0.00  0.97  0.00  0.00  0.87  0.00
  GQ84                    1.00   0.03  0.00  0.00  0.32  0.65  0.00  0.00  0.75  0.00
  GQ85                    1.00   0.03  0.00  0.00  0.97  0.00  0.00  0.00  0.48  0.00
  GQ86                    1.00   0.03  0.00  0.00  0.97  0.00  0.00  0.00  0.87  0.00
  GQ87                    1.00   0.03  0.00  0.00  0.97  0.00  0.00  0.00  0.87  0.00
  GQ88                    1.00   0.03  0.00  0.00  0.78  0.19  0.00  0.00  0.87  0.00
  GQ89                    1.00   0.03  0.00  0.00  0.96  0.01  0.00  0.00  0.78  0.00
  GQ90                    1.00   0.03  0.00  0.00  0.79  0.18  0.00  0.00  0.87  0.00
  GQ91                    1.00   0.03  0.00  0.00  0.96  0.01  0.00  0.00  0.77  0.00
  GQ92                    1.00   0.03  0.00  0.00  0.91  0.06  0.00  0.00  0.04  0.00
  GQ93                    1.00   0.03  0.00  0.00  0.97  0.00  0.00  0.00  0.70  0.00
  GQ94                    1.00   0.03  0.00  0.00  0.52  0.45  0.00  0.00  0.07  0.00
  GQ95                    1.00   0.03  0.00  0.00  0.97  0.00  0.00  0.00  0.87  0.00
  GQ96                    1.00   0.03  0.00  0.00  0.97  0.00  0.00  0.00  0.49  0.00
  GQ97                    1.00   0.03  0.00  0.00  0.00  0.97  0.00  0.00  0.35  0.00
  GQ98                    1.00   0.03  0.00  0.00  0.97  0.00  0.00  0.00  0.60  0.00
  GQ99                    1.00   0.03  0.00  0.00  0.96  0.01  0.00  0.00  0.87  0.00
  GQ100                   1.00   0.03  0.00  0.00  0.00  0.97  0.00  0.00  0.01  0.00
  GQ101                   1.00   0.03  0.00  0.00  0.80  0.17  0.00  0.00  0.87  0.00
  GQ102                   1.00   0.03  0.00  0.00  0.63  0.34  0.00  0.00  0.87  0.00
  GQ103                   1.00   0.03  0.00  0.00  0.97  0.00  0.00  0.00  0.69  0.00
  GQ104                   1.00   0.03  0.00  0.00  0.63  0.35  0.00  0.00  0.77  0.00
  GQ105                   1.00   0.03  0.00  0.00  0.97  0.00  0.00  0.00  0.04  0.00
  GQ106                   1.00   0.03  0.00  0.00  0.82  0.15  0.00  0.00  0.87  0.00
  GQ107                   1.00   0.03  0.00  0.00  0.69  0.28  0.00  0.00  0.67  0.00
  GQ108                   1.00   0.03  0.00  0.00  0.97  0.00  0.00  0.00  0.03  0.00
  GQ109                   1.00   0.03  0.00  0.00  0.91  0.06  0.00  0.00  0.76  0.00
  GQ110                   1.00   0.03  0.00  0.00  0.96  0.01  0.00  0.00  0.87  0.00
  GQ111                   1.00   0.03  0.00  0.00  0.80  0.17  0.00  0.00  0.76  0.00
  GQ112                   1.00   0.03  0.00  0.00  0.00  0.97  0.00  0.00  0.85  0.00
  GQ113                   1.00   0.03  0.00  0.00  0.00  0.97  0.00  0.00  0.85  0.00
  GQ114                   1.00   0.03  0.00  0.00  0.97  0.00  0.00  0.00  0.04  0.00
  GQ115                   1.00   0.03  0.00  0.00  0.94  0.03  0.00  0.00  0.87  0.00
  GQ116                   1.00   0.03  0.00  0.00  0.97  0.00  0.00  0.00  0.87  0.00
  GQ117                   1.00   0.03  0.00  0.00  0.00  0.97  0.00  0.00  0.01  0.00
  GQ118                   1.00   0.03  0.00  0.00  0.40  0.57  0.00  0.00  0.87  0.00
  GQ119                   1.00   0.03  0.00  0.00  0.77  0.20  0.00  0.00  0.58  0.00
  GQ120                   1.00   0.03  0.02  0.00  0.95  0.00  0.00  0.00  0.00  0.00
  GQ121                   1.00   0.03  0.00  0.00  0.96  0.01  0.00  0.00  0.04  0.00
  GQ122                   1.00   0.03  0.00  0.00  0.80  0.17  0.00  0.00  0.87  0.00
  GQ123                   1.00   0.03  0.00  0.00  0.76  0.21  0.00  0.00  0.87  0.00
  GQ124                   1.00   0.03  0.00  0.00  0.95  0.02  0.00  0.00  0.87  0.00
  GQ125                   1.00   0.03  0.00  0.00  0.96  0.01  0.00  0.00  0.76  0.00
  GQ126                   1.00   0.03  0.00  0.00  0.76  0.21  0.00  0.00  0.81  0.00
  GQ127                   1.00   0.03  0.00  0.00  0.97  0.00  0.00  0.00  0.47  0.00
  GQ128                   1.00   0.03  0.00  0.00  0.39  0.58  0.00  0.00  0.72  0.00
  GQ129                   1.00   0.03  0.00  0.00  0.97  0.00  0.00  0.00  0.15  0.00
  GQ130                   1.00   0.03  0.00  0.00  0.71  0.26  0.00  0.00  0.16  0.00
  GQ131                   1.00   0.03  0.00  0.00  0.85  0.12  0.00  0.00  0.64  0.00
  
  
  *************************
  Conduit Surcharge Summary
  *************************
  
  ----------------------------------------------------------------------------
                                                           Hours        Hours 
                         --------- Hours Full --------   Above Full   Capacity
  Conduit                Both Ends  Upstream  Dnstream   Normal Flow   Limited
  ----------------------------------------------------------------------------
  GQ1                         0.01      0.68      0.01      0.01         0.01
  GQ4                         5.09      5.09      6.60      0.01         0.01
  GQ5                         1.20      1.20      6.57      0.01         0.01
  GQ6                         0.01      0.01      1.20      0.01         0.01
  GQ7                         2.35      2.35      3.03      0.01         0.01
  GQ8                         0.17      0.17      2.35      0.01         0.01
  GQ9                         0.17      0.17      6.69      0.01         0.01
  GQ10                        5.62      5.62      6.71      0.06         0.01
  GQ12                        0.01      0.01      6.55      0.01         0.01
  GQ13                        0.01      0.01      4.36      0.01         0.01
  GQ16                        0.01      0.65      0.01      0.01         0.01
  GQ18                        0.01      0.01      5.99      6.26         0.01
  GQ20                        0.01      0.01      0.86      0.01         0.01
  GQ21                        0.01      0.01      0.86      0.01         0.01
  GQ22                        0.01      0.01      0.51      0.01         0.01
  GQ23                        0.51      0.51      0.71      0.01         0.01
  GQ24                        0.79      0.79      6.64      0.01         0.01
  GQ25                        0.01      0.80      0.01      0.80         0.01
  GQ26                        0.01      0.01      0.90      0.01         0.01
  GQ27                        0.90      0.90      6.55      0.01         0.01
  GQ28                        0.01      0.01      6.58      0.01         0.01
  GQ29                        6.48      6.48      6.58      0.01         0.01
  GQ30                        6.55      6.55      6.61      0.01         0.01
  GQ31                        0.80      0.80      6.73      0.01         0.01
  GQ32                        0.53      1.54      0.53      1.37         0.53
  GQ33                        1.54      1.54      6.73      0.01         0.01
  GQ34                        0.01      0.01      1.54      0.01         0.01
  GQ35                        1.41      1.43      1.54      0.19         0.01
  GQ36                        1.41      1.43      1.51      1.61         1.39
  GQ37                        0.53      0.53      6.68      0.01         0.01
  GQ38                        0.01      0.01      6.68      0.01         0.01
  GQ39                        0.94      0.94      6.55      0.01         0.01
  GQ40                        0.53      0.53      0.94      0.01         0.01
  GQ41                        0.65      0.65      6.58      0.01         0.01
  GQ42                        2.24      2.24      6.60      0.01         0.01
  GQ43                        1.72      1.72      2.24      0.13         0.01
  GQ44                        5.16      5.16      5.99      0.01         0.01
  GQ45                        0.01      0.01      2.32      0.01         0.01
  GQ46                        2.32      2.32      5.16      0.01         0.01
  GQ47                        0.01      0.01      6.65      0.01         0.01
  GQ48                        0.01      0.01      6.66      0.01         0.01
  GQ49                        0.01      0.01      6.66      0.01         0.01
  GQ50                        0.01      0.01      0.92      0.01         0.01
  GQ51                        0.68      0.92      0.68      1.07         0.68
  GQ52                        0.50      0.50      6.48      0.44         0.43
  GQ53                        2.03      2.03      6.59      0.01         0.01
  GQ54                        0.01      0.01      6.67      0.01         0.01
  GQ55                        0.01      0.01      6.67      0.01         0.01
  GQ56                        1.82      1.90      2.35      0.45         0.13
  GQ57                        0.01      0.01      1.90      0.01         0.01
  GQ58                        0.01      0.01      6.55      0.01         0.01
  GQ59                        2.24      2.24      6.55      0.01         0.01
  GQ60                        1.22      1.22      2.35      0.01         0.01
  GQ61                        0.01      0.01      6.36      0.01         0.01
  GQ62                        0.01      0.01      6.40      0.01         0.01
  GQ63                        0.01      0.01      6.41      0.01         0.01
  GQ66                        0.01      0.01      6.45      0.01         0.01
  GQ67                        6.37      6.37      6.41      0.01         0.01
  GQ68                        0.01      0.01      6.50      0.01         0.01
  GQ69                        0.01      0.01      6.63      0.01         0.01
  GQ75                        0.01      0.01      6.51      0.01         0.01
  GQ78                        1.66      1.66      6.67      0.01         0.01
  GQ79                        0.01      0.01      6.67      0.01         0.01
  GQ80                        1.66      1.66      6.34      0.01         0.01
  GQ81                        6.24      6.34      6.55      6.05         1.47
  GQ82                        0.01      0.01      6.55      0.01         0.01
  GQ83                        0.01      0.01      0.79      0.01         0.01
  GQ84                        0.88      0.88      2.25      0.04         0.01
  GQ85                        0.88      0.88      6.77      0.01         0.01
  GQ86                        0.01      0.01      6.66      0.01         0.01
  GQ87                        0.01      0.01      6.66      0.01         0.01
  GQ88                        0.01      0.01      6.66      0.01         0.01
  GQ89                        0.01      0.01      6.55      0.01         0.01
  GQ90                        0.01      0.01      6.49      0.01         0.01
  GQ91                        0.01      0.01      6.57      0.01         0.01
  GQ92                        0.83      0.85      0.91      0.83         0.74
  GQ93                        0.91      0.91      1.61      0.01         0.01
  GQ94                        1.60      1.61      1.72      1.66         1.48
  GQ95                        0.01      0.01      6.72      0.01         0.01
  GQ96                        0.84      0.87      0.85      0.91         0.77
  GQ98                        0.01      0.01      6.63      0.01         0.01
  GQ99                        0.01      0.01      6.41      0.01         0.01
  GQ100                       0.01      0.68      0.01      0.65         0.01
  GQ101                       0.01      0.01      6.58      0.01         0.01
  GQ102                       0.01      0.01      6.59      0.01         0.01
  GQ103                       0.70      0.70      6.62      0.01         0.01
  GQ104                       0.53      0.53      6.62      0.06         0.01
  GQ105                       6.56      6.56      6.59      6.15         0.01
  GQ106                       0.01      0.01      6.58      0.01         0.01
  GQ107                       0.94      0.94      6.58      0.01         0.01
  GQ108                       6.02      6.02      6.56      0.01         0.01
  GQ109                       0.01      0.01      0.94      0.01         0.01
  GQ110                       0.01      0.01      6.51      0.01         0.01
  GQ111                       0.01      0.01      6.58      0.01         0.01
  GQ114                       0.01      0.01      6.67      0.01         0.01
  GQ116                       0.01      0.01      6.67      0.01         0.01
  GQ119                       1.89      1.89      6.63      0.01         0.01
  GQ120                       0.01      0.01      6.61      0.01         0.01
  GQ121                       6.56      6.56      6.63      0.01         0.01
  GQ122                       0.01      0.01      6.56      0.01         0.01
  GQ123                       0.01      0.01      6.57      0.01         0.01
  GQ125                       0.01      0.01      6.57      0.01         0.01
  GQ126                       0.01      0.01      6.58      0.01         0.01
  GQ127                       1.72      1.72      1.89      0.26         0.15
  GQ128                       0.01      0.01      1.45      0.01         0.01
  GQ129                       3.03      3.03      6.64      0.01         0.01
  GQ130                       3.59      3.59      6.79      0.01         0.01
  GQ131                       0.92      0.92      6.74      0.01         0.01
  

  Analysis begun on:  Wed Mar 29 19:38:41 2023
  Analysis ended on:  Wed Mar 29 19:38:58 2023
  Total elapsed time: 00:00:17