
  OWA STORM WATER MANAGEMENT MODEL - VERSION v5.1.14 (OWA 2022-07-31)
  --------------------------------------------------------------

  INP file created by DSDAConvertToSwmmTools 
  version 0.0.1 EcoVista 
  Title/Notes: 
  
  
  *********************************************************
  NOTE: The summary statistics displayed in this report are
  based on results found at every computational time step,  
  not just on results from each reporting time step.
  *********************************************************
  
  ****************
  Analysis Options
  ****************
  Flow Units ............... CMS
  Process Models:
    Rainfall/Runoff ........ YES
    RDII ................... NO
    Snowmelt ............... NO
    Groundwater ............ NO
    Flow Routing ........... YES
    Ponding Allowed ........ NO
    Water Quality .......... NO
  Infiltration Method ...... GREEN_AMPT
  Flow Routing Method ...... DYNWAVE
  Surcharge Method ......... EXTRAN
  Starting Date ............ 07/15/2020 00:00:00
  Ending Date .............. 07/16/2020 01:00:00
  Antecedent Dry Days ...... 0.0
  Report Time Step ......... 00:30:00
  Wet Time Step ............ 00:05:00
  Dry Time Step ............ 01:00:00
  Routing Time Step ........ 30.00 sec
  Variable Time Step ....... YES
  Maximum Trials ........... 8
  Number of Threads ........ 1
  Head Tolerance ........... 0.001500 m
  
  
  **************************        Volume         Depth
  Runoff Quantity Continuity     hectare-m            mm
  **************************     ---------       -------
  Total Precipitation ......       144.674        36.200
  Evaporation Loss .........         9.047         2.264
  Infiltration Loss ........        38.663         9.674
  Surface Runoff ...........        90.620        22.675
  Final Storage ............         6.384         1.597
  Continuity Error (%) .....        -0.028
  
  
  **************************        Volume        Volume
  Flow Routing Continuity        hectare-m      10^6 ltr
  **************************     ---------     ---------
  Dry Weather Inflow .......         0.000         0.000
  Wet Weather Inflow .......        90.603       906.041
  Groundwater Inflow .......         0.000         0.000
  RDII Inflow ..............         0.000         0.000
  External Inflow ..........         0.000         0.000
  External Outflow .........         9.376        93.765
  Flooding Loss ............        79.963       799.639
  Evaporation Loss .........         0.000         0.000
  Exfiltration Loss ........         0.000         0.000
  Initial Stored Volume ....         0.000         0.000
  Final Stored Volume ......         1.115        11.146
  Continuity Error (%) .....         0.165
  
  
  *************************
  Highest Continuity Errors
  *************************
  Node jd51 (5.99%)
  Node jd64 (4.90%)
  Node jd59 (4.82%)
  Node jd31 (4.43%)
  Node jd55 (3.97%)
  
  
  ***************************
  Time-Step Critical Elements
  ***************************
  Link GQ73 (98.45%)
  
  
  ********************************
  Highest Flow Instability Indexes
  ********************************
  Link GQ67 (21)
  Link GQ29 (15)
  Link GQ121 (11)
  Link GQ114 (6)
  Link GQ30 (2)
  
  
  *************************
  Routing Time Step Summary
  *************************
  Minimum Time Step           :     1.55 sec
  Average Time Step           :     9.51 sec
  Maximum Time Step           :    30.00 sec
  Percent in Steady State     :     0.00
  Average Iterations per Step :     3.39
  Percent Not Converging      :    10.28
  
  
  ***************************
  Subcatchment Runoff Summary
  ***************************
  
  ------------------------------------------------------------------------------------------------------------------------------
                            Total      Total      Total      Total     Imperv       Perv      Total       Total     Peak  Runoff
                           Precip      Runon       Evap      Infil     Runoff     Runoff     Runoff      Runoff   Runoff   Coeff
  Subcatchment                 mm         mm         mm         mm         mm         mm         mm    10^6 ltr      CMS
  ------------------------------------------------------------------------------------------------------------------------------
  1                         36.20       0.00       1.36      20.28      13.73       0.00      13.73        5.43     0.19   0.379
  2                         36.20       0.00       2.43       7.70      24.27       0.00      24.27       21.95     0.74   0.671
  3                         36.20       0.00       2.53       6.60      25.29       0.00      25.29       10.12     0.35   0.699
  4                         36.20       0.00       2.61       5.67      26.14       0.00      26.14        2.19     0.08   0.722
  5                         36.20       0.00       2.30       9.22      23.13       0.00      23.13        2.86     0.10   0.639
  6                         36.20       0.00       2.20      10.37      22.16       0.00      22.16        2.06     0.07   0.612
  7                         36.20       0.00       2.30       9.26      23.00       0.00      23.00       10.03     0.34   0.635
  8                         36.20       0.00       2.92       2.03      29.18       0.00      29.18        4.06     0.14   0.806
  9                         36.20       0.00       3.00       1.01      30.05       0.00      30.05        3.52     0.12   0.830
  10                        36.20       0.00       2.59       5.89      25.91       0.00      25.91        5.84     0.20   0.716
  11                        36.20       0.00       2.79       3.46      27.95       0.00      27.95       13.85     0.47   0.772
  12                        36.20       0.00       2.20      10.41      22.07       0.00      22.07       10.77     0.37   0.610
  13                        36.20       0.00       2.76       3.90      27.58       0.00      27.58       12.47     0.43   0.762
  14                        36.20       0.00       2.75       3.95      27.58       0.00      27.58        5.20     0.18   0.762
  15                        36.20       0.00       2.55       6.36      25.50       0.00      25.50        8.62     0.30   0.704
  16                        36.20       0.00       2.64       5.26      26.43       0.00      26.43        7.81     0.27   0.730
  17                        36.20       0.00       2.47       7.23      24.77       0.00      24.77       10.36     0.36   0.684
  18                        36.20       0.00       2.85       2.85      28.46       0.00      28.46       11.75     0.40   0.786
  19                        36.20       0.00       2.84       2.98      28.34       0.00      28.34        6.37     0.22   0.783
  20                        36.20       0.00       2.82       3.18      28.10       0.00      28.10       15.08     0.51   0.776
  21                        36.20       0.00       3.00       1.07      29.96       0.00      29.96        9.40     0.32   0.828
  22                        36.20       0.00       2.94       1.71      29.40       0.00      29.40        3.62     0.12   0.812
  23                        36.20       0.00       2.71       4.43      27.10       0.00      27.10       15.51     0.53   0.749
  24                        36.20       0.00       2.62       5.53      26.16       0.00      26.16        4.64     0.16   0.723
  25                        36.20       0.00       2.80       3.40      28.03       0.00      28.03        5.68     0.20   0.774
  26                        36.20       0.00       2.38       8.26      23.82       0.00      23.82        8.36     0.28   0.658
  27                        36.20       0.00       2.86       2.71      28.50       0.00      28.50       12.04     0.41   0.787
  28                        36.20       0.00       2.92       2.00      29.14       0.00      29.14       13.78     0.47   0.805
  29                        36.20       0.00       2.61       5.62      26.17       0.00      26.17        6.11     0.21   0.723
  30                        36.20       0.00       2.98       1.22      29.92       0.00      29.92        2.15     0.07   0.827
  31                        36.20       0.00       3.02       0.76      30.23       0.00      30.23        6.66     0.23   0.835
  32                        36.20       0.00       2.95       1.61      29.50       0.00      29.50       12.75     0.44   0.815
  33                        36.20       0.00       2.99       1.18      29.86       0.00      29.86       10.52     0.36   0.825
  34                        36.20       0.00       2.78       3.67      27.78       0.00      27.78        8.14     0.28   0.767
  35                        36.20       0.00       2.86       2.73      28.56       0.00      28.56       11.84     0.41   0.789
  36                        36.20       0.00       2.35       8.62      23.63       0.00      23.63        9.30     0.32   0.653
  37                        36.20       0.00       2.92       1.95      29.21       0.00      29.21        6.48     0.22   0.807
  38                        36.20       0.00       2.74       4.10      27.42       0.00      27.42       10.46     0.36   0.758
  39                        36.20       0.00       2.47       7.20      24.81       0.00      24.81       10.48     0.36   0.685
  40                        36.20       0.00       2.76       3.92      27.57       0.00      27.57        6.30     0.22   0.762
  41                        36.20       0.00       2.82       3.19      28.21       0.00      28.21        5.56     0.19   0.779
  42                        36.20       0.00       2.81       3.22      28.09       0.00      28.09        6.94     0.24   0.776
  43                        36.20       0.00       2.37       8.46      23.71       0.00      23.71       18.74     0.63   0.655
  44                        36.20       0.00       2.53       6.60      25.25       0.00      25.25       12.21     0.42   0.698
  45                        36.20       0.00       2.37       8.40      23.78       0.00      23.78       17.21     0.59   0.657
  46                        36.20       0.00       2.29       9.36      23.03       0.00      23.03       11.51     0.40   0.636
  47                        36.20       0.00       2.41       8.00      24.11       0.00      24.11       28.10     0.96   0.666
  48                        36.20       0.00       2.88       2.51      28.66       0.00      28.66       16.63     0.56   0.792
  49                        36.20       0.00       2.63       5.36      26.26       0.00      26.26       17.77     0.60   0.725
  50                        36.20       0.00       2.92       2.04      28.99       0.00      28.99       11.40     0.38   0.801
  51                        36.20       0.00       2.79       3.52      27.77       0.00      27.77        5.20     0.17   0.767
  52                        36.20       0.00       1.36      20.31      13.71       0.00      13.71       14.07     0.48   0.379
  53                        36.20       0.00       1.96      13.18      19.80       0.00      19.80       21.09     0.72   0.547
  54                        36.20       0.00       2.42       7.80      24.29       0.00      24.29        5.92     0.20   0.671
  55                        36.20       0.00       1.39      19.94      14.02       0.00      14.02       11.06     0.38   0.387
  56                        36.20       0.00       0.52      30.07       5.36       0.00       5.36        4.37     0.15   0.148
  57                        36.20       0.00       2.75       4.03      27.39       0.00      27.39       22.76     0.77   0.757
  58                        36.20       0.00       2.54       6.39      25.47       0.00      25.47        4.19     0.14   0.704
  59                        36.20       0.00       2.48       7.11      24.92       0.00      24.92        3.17     0.11   0.688
  60                        36.20       0.00       0.93      25.30       9.45       0.00       9.45        2.71     0.09   0.261
  61                        36.20       0.00       1.45      19.24      14.54       0.00      14.54        5.48     0.19   0.402
  62                        36.20       0.00       2.01      12.60      20.21       0.00      20.21       23.68     0.80   0.558
  63                        36.20       0.00       2.75       3.99      27.37       0.00      27.37       52.94     1.77   0.756
  64                        36.20       0.00       2.05      12.17      20.67       0.00      20.67        4.44     0.15   0.571
  65                        36.20       0.00       2.79       3.53      27.77       0.00      27.77       18.68     0.63   0.767
  66                        36.20       0.00       2.20      10.47      21.98       0.00      21.98        5.60     0.19   0.607
  67                        36.20       0.00       2.05      12.15      20.72       0.00      20.72        6.70     0.23   0.572
  68                        36.20       0.00       2.46       7.35      24.68       0.00      24.68        2.74     0.09   0.682
  69                        36.20       0.00       1.44      19.27      14.67       0.00      14.67        4.70     0.16   0.405
  70                        36.20       0.00       2.03      12.37      20.40       0.00      20.40       16.78     0.57   0.564
  71                        36.20       0.00       2.51       6.77      25.17       0.00      25.17        3.09     0.11   0.695
  72                        36.20       0.00       2.65       5.17      26.53       0.00      26.53        3.30     0.11   0.733
  73                        36.20       0.00       2.40       8.08      24.10       0.00      24.10        4.00     0.14   0.666
  74                        36.20       0.00       2.29       9.40      22.97       0.00      22.97        4.94     0.17   0.635
  75                        36.20       0.00       2.54       6.41      25.48       0.00      25.48        3.67     0.13   0.704
  76                        36.20       0.00       2.67       4.86      26.80       0.00      26.80        2.60     0.09   0.740
  77                        36.20       0.00       2.85       2.78      28.53       0.00      28.53        3.09     0.11   0.788
  78                        36.20       0.00       2.75       3.96      27.53       0.00      27.53        3.03     0.10   0.761
  79                        36.20       0.00       1.21      22.06      12.24       0.00      12.24       12.98     0.44   0.338
  80                        36.20       0.00       2.27       9.55      22.76       0.00      22.76       14.24     0.49   0.629
  81                        36.20       0.00       2.31       9.13      23.12       0.00      23.12       10.08     0.34   0.639
  82                        36.20       0.00       2.21      10.28      22.16       0.00      22.16       20.31     0.69   0.612
  83                        36.20       0.00       2.77       3.80      27.70       0.00      27.70        3.39     0.12   0.765
  84                        36.20       0.00       2.61       5.62      26.13       0.00      26.13        3.12     0.11   0.722
  85                        36.20       0.00       3.07       0.28      30.66       0.00      30.66        2.85     0.10   0.847
  86                        36.20       0.00       2.83       3.05      28.30       0.00      28.30        4.17     0.14   0.782
  87                        36.20       0.00       3.02       0.78      30.19       0.00      30.19        3.97     0.14   0.834
  88                        36.20       0.00       2.70       4.51      27.09       0.00      27.09        2.59     0.09   0.748
  89                        36.20       0.00       2.84       2.91      28.44       0.00      28.44        5.48     0.19   0.786
  90                        36.20       0.00       3.09       0.01      30.91       0.00      30.91        0.35     0.01   0.854
  91                        36.20       0.00       2.57       6.07      25.67       0.00      25.67        5.60     0.19   0.709
  92                        36.20       0.00       2.85       2.82      28.51       0.00      28.51        3.56     0.12   0.787
  93                        36.20       0.00       2.32       8.99      23.28       0.00      23.28       11.92     0.41   0.643
  94                        36.20       0.00       2.09      11.73      21.08       0.00      21.08        1.48     0.05   0.582
  95                        36.20       0.00       3.09       0.04      30.85       0.00      30.85        0.67     0.02   0.852
  96                        36.20       0.00       2.49       7.01      24.98       0.00      24.98        3.05     0.11   0.690
  97                        36.20       0.00       3.02       0.77      30.24       0.00      30.24        3.00     0.10   0.835
  98                        36.20       0.00       2.51       6.84      25.13       0.00      25.13        3.10     0.11   0.694
  99                        36.20       0.00       1.24      21.66      12.61       0.00      12.61        4.68     0.16   0.348
  100                       36.20       0.00       1.38      20.03      14.01       0.00      14.01        3.59     0.12   0.387
  101                       36.20       0.00       1.41      19.64      14.34       0.00      14.34        7.03     0.24   0.396
  102                       36.20       0.00       2.30       9.21      23.11       0.00      23.11        5.63     0.19   0.638
  103                       36.20       0.00       0.77      27.18       7.84       0.00       7.84        2.85     0.10   0.217
  104                       36.20       0.00       0.52      30.10       5.30       0.00       5.30        5.14     0.18   0.147
  105                       36.20       0.00       2.54       6.43      25.48       0.00      25.48        3.33     0.12   0.704
  106                       36.20       0.00       1.38      20.07      13.94       0.00      13.94        3.40     0.12   0.385
  
  
  ******************
  Node Depth Summary
  ******************
  
  ---------------------------------------------------------------------------------
                                 Average  Maximum  Maximum  Time of Max    Reported
                                   Depth    Depth      HGL   Occurrence   Max Depth
  Node                 Type       Meters   Meters   Meters  days hr:min      Meters
  ---------------------------------------------------------------------------------
  jd1                  JUNCTION     0.07     0.12   273.12     0  19:00        0.12
  jd2                  JUNCTION     0.18     0.31   267.31     0  19:00        0.31
  jd3                  JUNCTION     2.89     3.00   266.00     0  02:06        3.00
  jd4                  JUNCTION     0.29     3.00   270.00     0  18:46        2.22
  jd5                  JUNCTION     0.05     0.08   274.08     0  19:00        0.08
  jd6                  JUNCTION     0.06     0.10   275.10     0  19:00        0.10
  jd7                  JUNCTION     0.23     0.36   264.46     0  19:00        0.36
  jd8                  JUNCTION     1.05     3.00   267.00     0  02:31        2.34
  jd9                  JUNCTION     0.47     3.00   268.00     0  02:31        1.95
  jd10                 JUNCTION     2.90     3.00   273.00     0  01:58        3.00
  jd11                 JUNCTION     0.06     0.09   282.09     0  19:00        0.09
  jd12                 JUNCTION     2.91     3.00   272.00     0  01:52        3.00
  jd13                 JUNCTION     0.07     0.11   289.11     0  19:00        0.11
  jd14                 JUNCTION     0.14     0.24   280.24     0  19:00        0.24
  jd15                 JUNCTION     0.15     0.26   278.26     0  19:00        0.26
  jd16                 JUNCTION     0.16     0.28   274.28     0  19:00        0.28
  jd17                 JUNCTION     1.63     3.00   278.80     0  02:21        3.00
  jd18                 JUNCTION     0.14     0.25   279.25     0  19:00        0.25
  jd19                 JUNCTION     0.30     0.59   267.59     0  19:00        0.59
  jd20                 JUNCTION     0.15     0.20   273.20     0  19:00        0.20
  jd21                 JUNCTION     2.89     3.00   273.00     0  02:03        3.00
  jd22                 JUNCTION     1.09     1.85   273.85     0  02:16        1.72
  jd23                 JUNCTION     0.13     0.22   278.22     0  19:00        0.22
  jd24                 JUNCTION     0.08     0.13   285.13     0  19:00        0.13
  jd25                 JUNCTION     0.13     0.22   279.22     0  19:00        0.22
  jd26                 JUNCTION     0.14     0.25   285.25     0  19:00        0.25
  jd27                 JUNCTION     0.12     0.20   291.20     0  19:00        0.20
  jd28                 JUNCTION     2.92     3.00   290.00     0  01:45        3.00
  jd29                 JUNCTION     0.06     0.09   299.09     0  19:00        0.09
  jd30                 JUNCTION     0.07     0.12   290.12     0  19:00        0.12
  jd31                 JUNCTION     0.96     3.00   275.00     0  02:21        1.05
  jd32                 JUNCTION     2.91     3.00   275.00     0  01:50        3.00
  jd33                 JUNCTION     0.10     0.18   289.18     0  19:00        0.18
  jd34                 JUNCTION     0.12     0.20   294.20     0  19:00        0.20
  jd35                 JUNCTION     2.93     3.00   292.00     0  01:36        3.00
  jd36                 JUNCTION     0.17     0.30   299.30     0  19:00        0.30
  jd37                 JUNCTION     0.16     0.29   303.29     0  19:00        0.29
  jd38                 JUNCTION     0.20     0.34   297.34     0  19:00        0.34
  jd39                 JUNCTION     2.89     3.00   297.00     0  02:05        3.00
  jd40                 JUNCTION     0.26     0.48   299.48     0  19:00        0.48
  jd41                 JUNCTION     2.85     3.00   296.00     0  02:33        3.00
  jd42                 JUNCTION     0.11     0.18   305.18     0  19:00        0.18
  jd43                 JUNCTION     0.26     0.48   297.48     0  19:00        0.48
  jd44                 JUNCTION     0.29     0.51   283.51     0  19:00        0.51
  jd45                 JUNCTION     2.90     3.00   282.00     0  01:57        3.00
  jd46                 JUNCTION     0.15     0.26   275.26     0  19:00        0.26
  jd47                 JUNCTION     0.09     0.15   315.15     0  19:00        0.15
  jd48                 JUNCTION     0.06     0.10   325.10     0  19:00        0.10
  jd49                 JUNCTION     0.14     0.24   289.24     0  19:00        0.24
  jd50                 JUNCTION     2.92     3.00   278.00     0  01:43        3.00
  jd51                 JUNCTION     2.84     3.00   313.00     0  02:38        3.00
  jd52                 JUNCTION     0.21     0.38   323.38     0  19:00        0.38
  jd53                 JUNCTION     0.21     0.38   322.38     0  19:00        0.38
  jd54                 JUNCTION     0.16     0.27   326.27     0  19:00        0.27
  jd55                 JUNCTION     1.19     1.46   323.46     0  19:00        1.46
  jd56                 JUNCTION     0.10     0.17   327.17     0  19:00        0.17
  jd59                 JUNCTION     2.82     3.00   320.80     0  02:43        3.00
  jd60                 JUNCTION     2.91     3.00   319.00     0  01:51        3.00
  jd61                 JUNCTION     0.08     0.14   329.14     0  19:00        0.14
  jd62                 JUNCTION     0.04     0.06   335.06     0  19:00        0.06
  jd63                 JUNCTION     0.04     0.07   324.07     0  19:00        0.07
  jd64                 JUNCTION     2.63     3.00   321.00     0  02:43        2.81
  jd65                 JUNCTION     0.57     3.00   307.00     0  02:35        3.00
  jd66                 JUNCTION     2.90     3.00   304.00     0  02:01        3.00
  jd69                 JUNCTION     0.13     0.22   333.22     0  19:00        0.22
  jd79                 JUNCTION     2.77     3.00   274.00     0  01:48        3.00
  jd80                 JUNCTION     1.78     3.00   279.00     0  02:14        3.00
  jd81                 JUNCTION     0.08     0.14   288.14     0  19:00        0.14
  jd83                 JUNCTION     2.93     3.00   323.00     0  01:33        3.00
  jd84                 JUNCTION     0.12     0.21   323.21     0  19:00        0.21
  jd85                 JUNCTION     2.90     3.00   324.00     0  01:58        3.00
  jd87                 JUNCTION     2.90     3.00   322.00     0  01:55        3.00
  jd89                 JUNCTION     0.09     0.15   324.15     0  19:00        0.15
  jd90                 JUNCTION     0.08     0.13   328.13     0  19:00        0.13
  jd92                 JUNCTION     0.08     0.13   326.13     0  19:00        0.13
  jd93                 JUNCTION     0.22     0.40   324.40     0  19:00        0.40
  jd94                 JUNCTION     0.14     0.24   326.44     0  19:00        0.24
  jd95                 JUNCTION     0.18     0.31   327.31     0  19:00        0.31
  jd96                 JUNCTION     2.91     3.00   308.00     0  01:50        3.00
  jd97                 JUNCTION     0.18     0.31   327.51     0  19:00        0.31
  jd98                 JUNCTION     0.10     0.18   329.18     0  19:00        0.18
  jd99                 JUNCTION     2.89     3.00   327.00     0  02:02        3.00
  jd101                JUNCTION     0.06     0.11   321.11     0  19:00        0.11
  jd102                JUNCTION     0.13     0.22   324.22     0  19:00        0.22
  jd103                JUNCTION     0.06     0.11   318.11     0  19:00        0.11
  jd106                JUNCTION     2.86     3.00   287.00     0  02:22        3.00
  jd107                JUNCTION     0.12     0.20   332.20     0  19:00        0.20
  jd108                JUNCTION     1.08     1.19   327.19     0  19:00        1.19
  jd109                JUNCTION     0.09     0.16   343.16     0  19:00        0.16
  jd110                JUNCTION     2.90     3.00   327.00     0  01:59        3.00
  jd111                JUNCTION     0.04     0.07   344.07     0  19:00        0.07
  jd112                JUNCTION     0.05     0.09   334.09     0  19:00        0.09
  jd113                JUNCTION     0.06     0.10   348.10     0  03:00        0.10
  jd114                JUNCTION     2.90     3.00   317.00     0  01:55        3.00
  jd117                JUNCTION     0.99     3.00   319.00     0  02:04        1.13
  jd118                JUNCTION     0.05     0.09   330.09     0  19:00        0.09
  jd120                JUNCTION     0.09     0.15   327.15     0  19:00        0.15
  jd121                JUNCTION     0.09     0.15   320.15     0  19:00        0.15
  jd122                JUNCTION     2.89     3.00   276.00     0  02:03        3.00
  jd123                JUNCTION     2.88     3.00   276.20     0  02:07        3.00
  jd124                JUNCTION     2.94     3.00   271.00     0  01:28        3.00
  jd125                JUNCTION     0.26     2.66   277.66     0  18:53        1.18
  jd126                JUNCTION     2.93     3.00   275.00     0  01:35        3.00
  jd135                JUNCTION     0.08     0.13   289.13     0  19:00        0.13
  jd136                JUNCTION     0.14     0.25   341.25     0  19:00        0.25
  psk1                 OUTFALL      0.05     0.09   279.09     0  19:00        0.09
  psk2                 OUTFALL      0.07     0.12   270.12     0  19:00        0.12
  psk3                 OUTFALL      0.16     0.28   271.28     0  19:00        0.28
  psk4                 OUTFALL      0.00     0.00   280.00     0  00:00        0.00
  psk5                 OUTFALL      0.07     0.12   263.12     0  19:00        0.12
  psk6                 OUTFALL      0.05     0.08   259.08     0  19:00        0.08
  psk7                 OUTFALL      0.23     0.36   262.36     0  19:00        0.36
  psk8                 OUTFALL      0.00     0.00   317.00     0  00:00        0.00
  
  
  *******************
  Node Inflow Summary
  *******************
  
  -------------------------------------------------------------------------------------------------
                                  Maximum  Maximum                  Lateral       Total        Flow
                                  Lateral    Total  Time of Max      Inflow      Inflow     Balance
                                   Inflow   Inflow   Occurrence      Volume      Volume       Error
  Node                 Type           CMS      CMS  days hr:min    10^6 ltr    10^6 ltr     Percent
  -------------------------------------------------------------------------------------------------
  jd1                  JUNCTION     0.185    0.303     0  19:00        5.43        9.02       0.008
  jd2                  JUNCTION     0.282    0.388     0  19:00        8.36        11.5       0.044
  jd3                  JUNCTION     0.340    1.182     0  19:00          10          35       1.155
  jd4                  JUNCTION     0.407    0.457     0  19:00          12        13.5       0.069
  jd5                  JUNCTION     0.122    0.213     0  19:00        3.52        6.27      -0.017
  jd6                  JUNCTION     0.140    0.140     0  19:00        4.06        4.06      -0.006
  jd7                  JUNCTION     0.071    1.171     0  19:00        2.06        40.4       0.033
  jd8                  JUNCTION     0.099    0.831     0  19:00        2.86        30.6       0.229
  jd9                  JUNCTION     0.076    0.734     0  19:02        2.19        27.7       0.025
  jd10                 JUNCTION     0.201    0.256     0  19:00        5.84        7.45       1.368
  jd11                 JUNCTION     0.297    0.297     0  19:00        8.62        8.62      -0.025
  jd12                 JUNCTION     0.223    0.482     0  19:00        6.48          14       0.984
  jd13                 JUNCTION     0.403    0.403     0  19:00        11.7        11.7      -0.011
  jd14                 JUNCTION     0.469    0.528     0  19:00        13.8        15.5       0.038
  jd15                 JUNCTION     0.196    0.423     0  19:00        5.68        12.4       0.149
  jd16                 JUNCTION     0.211    0.800     0  19:00        6.11        23.3       0.044
  jd17                 JUNCTION     0.438    1.117     0  19:00        12.7        43.9       0.319
  jd18                 JUNCTION     0.349    0.505     0  19:00        10.1        14.6       0.048
  jd19                 JUNCTION     0.324    0.675     0  19:00         9.4        25.5       0.032
  jd20                 JUNCTION     0.268    0.485     0  19:00        7.81        22.2       0.032
  jd21                 JUNCTION     0.124    1.077     0  19:00        3.61        33.8       0.999
  jd22                 JUNCTION     0.218    0.494     0  19:00        6.37        14.5       0.572
  jd23                 JUNCTION     0.216    0.598     0  19:00         6.3        17.4       0.021
  jd24                 JUNCTION     0.356    0.356     0  19:00        10.4        10.4      -0.012
  jd25                 JUNCTION     0.279    0.404     0  19:00        8.14        11.7       0.024
  jd26                 JUNCTION     0.407    0.676     0  19:00        11.8        19.8       0.020
  jd27                 JUNCTION     0.415    0.689     0  19:00        12.2        20.4       0.037
  jd28                 JUNCTION     0.561    0.790     0  19:00        16.6        23.4       0.571
  jd29                 JUNCTION     0.229    0.229     0  19:00        6.66        6.66      -0.035
  jd30                 JUNCTION     0.236    0.643     0  19:00        6.94          19       0.018
  jd31                 JUNCTION     0.158    0.640     0  02:21        4.64        10.1       4.635
  jd32                 JUNCTION     0.323    1.464     0  19:00         9.4        40.1       0.623
  jd33                 JUNCTION     0.319    0.530     0  19:00         9.3        15.5       0.000
  jd34                 JUNCTION     0.396    0.396     0  19:00        11.5        11.5      -0.004
  jd35                 JUNCTION     0.360    1.248     0  19:00        10.5        36.9       0.353
  jd36                 JUNCTION     0.599    0.984     0  19:00        17.8        29.3       0.063
  jd37                 JUNCTION     0.633    0.633     0  19:00        18.7        18.7       0.021
  jd38                 JUNCTION     0.585    0.963     0  19:00        17.2        28.4       0.061
  jd39                 JUNCTION     0.408    1.813     0  19:00        11.9        54.3       0.948
  jd40                 JUNCTION     0.688    1.689     0  19:00        20.3        49.2       0.068
  jd41                 JUNCTION     0.486    2.070     0  19:00        14.2        60.2       3.657
  jd42                 JUNCTION     0.626    0.688     0  19:00        18.7        20.5       0.068
  jd43                 JUNCTION     0.722    1.248     0  19:00        21.1        36.1       0.059
  jd44                 JUNCTION     0.956    2.402     0  19:00        28.1        70.3       0.073
  jd45                 JUNCTION     0.379    1.531     0  19:00        11.4          45       0.720
  jd46                 JUNCTION     0.173    0.173     0  19:00        5.19        5.19       0.065
  jd47                 JUNCTION     0.574    0.574     0  19:00        16.8        16.8      -0.135
  jd48                 JUNCTION     0.161    0.161     0  19:00        4.69        4.69      -0.057
  jd49                 JUNCTION     0.767    0.767     0  19:00        22.8        22.8       0.029
  jd50                 JUNCTION     0.803    2.454     0  19:00        23.7        90.8       0.476
  jd51                 JUNCTION     0.170    0.781     0  19:00        4.94        22.8       6.376
  jd52                 JUNCTION     0.342    1.358     0  19:00        10.1        39.2       0.059
  jd53                 JUNCTION     0.189    1.053     0  19:00         5.6        30.7       0.036
  jd54                 JUNCTION     0.104    0.516     0  19:00           3          15       0.033
  jd55                 JUNCTION     0.189    0.609     0  19:00        5.48        17.7       4.136
  jd56                 JUNCTION     0.115    0.337     0  19:00        3.33        9.74      -0.014
  jd59                 JUNCTION     0.114    0.569     0  02:42         3.3          16       5.061
  jd60                 JUNCTION     0.204    0.432     0  19:00        5.92        12.6       1.024
  jd61                 JUNCTION     0.228    0.257     0  19:00         6.7        7.53      -0.007
  jd62                 JUNCTION     0.093    0.093     0  19:00        2.71        2.71      -0.033
  jd63                 JUNCTION     0.127    0.127     0  19:00        3.67        3.67      -0.042
  jd64                 JUNCTION     0.106    0.263     0  19:00        3.09        7.63       5.156
  jd65                 JUNCTION     1.766    1.766     0  19:00        52.9        52.9       0.026
  jd66                 JUNCTION     0.238    0.694     0  19:00        7.02        20.4       1.576
  jd69                 JUNCTION     0.443    0.456     0  19:00          13        13.3      -0.028
  jd79                 JUNCTION     0.428    0.767     0  19:00        12.5        21.4       0.825
  jd80                 JUNCTION     0.475    0.639     0  19:00        13.9        19.5       0.094
  jd81                 JUNCTION     0.360    0.360     0  19:00        10.5        10.5      -0.007
  jd83                 JUNCTION     0.380    0.516     0  19:00        11.1        15.4       0.547
  jd84                 JUNCTION     0.483    0.483     0  19:00        14.1        14.1      -0.021
  jd85                 JUNCTION     0.110    0.180     0  19:00        3.17        5.22       1.645
  jd87                 JUNCTION     0.090    0.216     0  19:00         2.6         6.3       1.186
  jd89                 JUNCTION     0.104    0.104     0  19:00        3.03        3.03      -0.028
  jd90                 JUNCTION     0.106    0.106     0  19:00        3.09        3.09      -0.055
  jd92                 JUNCTION     0.090    0.090     0  19:00        2.59        2.59      -0.033
  jd93                 JUNCTION     0.190    0.413     0  19:00         5.6        12.1       0.037
  jd94                 JUNCTION     0.012    0.224     0  19:00       0.355         6.5       0.068
  jd95                 JUNCTION     0.023    0.212     0  19:00       0.673        6.15       0.028
  jd96                 JUNCTION     0.176    0.234     0  19:00        5.14        6.82       1.417
  jd97                 JUNCTION     0.189    0.189     0  19:00        5.48        5.48      -0.004
  jd98                 JUNCTION     0.105    0.105     0  19:00        3.05        3.05       0.002
  jd99                 JUNCTION     0.051    0.180     0  19:00        1.48        5.28       1.079
  jd101                JUNCTION     0.138    0.274     0  19:00           4        7.97      -0.093
  jd102                JUNCTION     0.137    0.137     0  19:00        3.97        3.97       0.032
  jd103                JUNCTION     0.095    0.095     0  19:00        2.74        2.74      -0.022
  jd106                JUNCTION     0.074    0.423     0  19:00        2.14        12.3       3.230
  jd107                JUNCTION     0.107    0.351     0  19:00         3.1        10.2       0.032
  jd108                JUNCTION     0.116    0.116     0  19:00         3.4        3.42       1.920
  jd109                JUNCTION     0.194    0.194     0  19:00        5.63        5.63      -0.001
  jd110                JUNCTION     0.148    0.221     0  19:00        4.37         6.5       2.386
  jd111                JUNCTION     0.123    0.123     0  19:00        3.59        3.59      -0.053
  jd112                JUNCTION     0.144    0.401     0  19:00        4.17        11.7      -0.002
  jd113                JUNCTION     0.097    0.097     0  03:00        2.85        2.85      -0.035
  jd114                JUNCTION     0.117    1.522     0  19:00        3.38        44.4       0.713
  jd117                JUNCTION     0.107    0.355     0  19:00        3.12        10.4       1.531
  jd118                JUNCTION     0.099    0.099     0  19:00        2.85        2.85      -0.020
  jd120                JUNCTION     0.123    0.123     0  19:00        3.56        3.56      -0.023
  jd121                JUNCTION     0.151    0.151     0  19:00        4.44        4.44      -0.013
  jd122                JUNCTION     0.359    1.552     0  19:00        10.5        61.6       0.914
  jd123                JUNCTION     0.370    1.703     0  19:00        10.8        68.4       1.027
  jd124                JUNCTION     0.529    1.462     0  18:53        15.5        45.8       0.122
  jd125                JUNCTION     0.510    1.743     0  19:00        15.1        51.7       0.023
  jd126                JUNCTION     0.737    1.036     0  19:00        21.9        30.7       0.327
  jd135                JUNCTION     0.192    0.192     0  19:00        5.56        5.56      -0.020
  jd136                JUNCTION     0.160    0.257     0  19:00        4.68        7.53       0.023
  psk1                 OUTFALL      0.000    0.189     0  19:00           0        5.51       0.000
  psk2                 OUTFALL      0.000    0.472     0  19:00           0          14       0.000
  psk3                 OUTFALL      0.000    0.798     0  19:00           0        23.3       0.000
  psk4                 OUTFALL      0.000    0.000     0  00:00           0           0       0.000 ltr
  psk5                 OUTFALL      0.000    0.196     0  19:00           0        5.85       0.000
  psk6                 OUTFALL      0.000    0.163     0  19:00           0        4.81       0.000
  psk7                 OUTFALL      0.000    1.170     0  19:00           0        40.4       0.000
  psk8                 OUTFALL      0.000    0.000     0  00:00           0           0       0.000 ltr
  
  
  **********************
  Node Surcharge Summary
  **********************
  
  Surcharging occurs when water rises above the top of the highest conduit.
  ---------------------------------------------------------------------
                                               Max. Height   Min. Depth
                                   Hours       Above Crown    Below Rim
  Node                 Type      Surcharged         Meters       Meters
  ---------------------------------------------------------------------
  jd3                  JUNCTION       22.90          2.200        0.000
  jd4                  JUNCTION        0.37          2.200        0.000
  jd8                  JUNCTION       13.54          2.200        0.000
  jd9                  JUNCTION        1.65          2.200        0.000
  jd10                 JUNCTION       23.02          2.400        0.000
  jd12                 JUNCTION       23.13          2.400        0.000
  jd17                 JUNCTION       17.42          2.200        0.000
  jd21                 JUNCTION       22.95          2.200        0.000
  jd22                 JUNCTION       22.73          1.246        1.154
  jd28                 JUNCTION       23.25          2.400        0.000
  jd31                 JUNCTION       22.64          2.200        0.000
  jd32                 JUNCTION       23.16          2.200        0.000
  jd35                 JUNCTION       23.39          2.400        0.000
  jd39                 JUNCTION       22.91          2.000        0.000
  jd41                 JUNCTION       22.45          1.000        0.000
  jd45                 JUNCTION       23.05          2.000        0.000
  jd50                 JUNCTION       23.28          2.200        0.000
  jd51                 JUNCTION       22.37          1.350        0.000
  jd59                 JUNCTION       22.28          1.500        0.000
  jd60                 JUNCTION       23.15          2.400        0.000
  jd64                 JUNCTION       22.30          1.800        0.000
  jd65                 JUNCTION        1.81          2.400        0.000
  jd66                 JUNCTION       22.98          2.200        0.000
  jd79                 JUNCTION       23.21          2.400        0.000
  jd80                 JUNCTION       19.37          2.400        0.000
  jd83                 JUNCTION       23.44          2.400        0.000
  jd85                 JUNCTION       23.03          2.400        0.000
  jd87                 JUNCTION       23.08          2.400        0.000
  jd96                 JUNCTION       23.16          2.200        0.000
  jd99                 JUNCTION       22.97          2.400        0.000
  jd106                JUNCTION       22.63          2.000        0.000
  jd108                JUNCTION       23.11          0.188        1.812
  jd110                JUNCTION       23.01          2.000        0.000
  jd114                JUNCTION       23.08          2.000        0.000
  jd117                JUNCTION       22.92          2.200        0.000
  jd122                JUNCTION       22.94          2.200        0.000
  jd123                JUNCTION       22.88          2.200        0.000
  jd124                JUNCTION       23.54          2.400        0.000
  jd125                JUNCTION        0.22          1.862        0.338
  jd126                JUNCTION       23.41          2.400        0.000
  
  
  *********************
  Node Flooding Summary
  *********************
  
  Flooding refers to all water that overflows a node, whether it ponds or not.
  --------------------------------------------------------------------------
                                                             Total   Maximum
                                 Maximum   Time of Max       Flood    Ponded
                        Hours       Rate    Occurrence      Volume     Depth
  Node                 Flooded       CMS   days hr:min    10^6 ltr    Meters
  --------------------------------------------------------------------------
  jd3                    22.90     1.182      0  19:00      34.639     0.000
  jd4                     0.01     0.092      0  18:46       0.001     0.000
  jd8                     0.01     0.038      0  18:18       0.001     0.000
  jd9                     0.01     0.088      0  02:31       0.001     0.000
  jd10                   23.02     0.256      0  19:00       7.347     0.000
  jd12                   23.12     0.482      0  19:00      13.865     0.000
  jd17                    1.76     0.713      0  02:21       1.107     0.000
  jd21                   22.64     1.077      0  19:00      33.178     0.000
  jd28                   23.24     0.790      0  19:00      23.316     0.000
  jd31                    0.01     0.481      0  02:21       0.004     0.000
  jd32                   23.16     1.464      0  19:00      39.836     0.000
  jd35                   23.39     1.248      0  19:00      36.773     0.000
  jd39                   22.91     1.813      0  19:00      53.828     0.000
  jd41                   22.45     2.069      0  19:00      58.034     0.000
  jd45                   23.04     1.531      0  19:00      44.700     0.000
  jd50                   23.28     2.454      0  19:00      90.383     0.000
  jd51                   22.37     0.781      0  19:00      21.441     0.000
  jd59                   22.27     0.564      0  19:00      15.247     0.000
  jd60                   23.14     0.432      0  19:00      12.504     0.000
  jd64                    0.01     0.134      0  02:43       0.002     0.000
  jd65                    1.69     0.672      0  19:00       2.404     0.000
  jd66                   22.98     0.694      0  19:00      20.046     0.000
  jd79                   13.31     0.550      0  19:00       6.826     0.000
  jd80                    5.10     0.481      0  19:00       3.600     0.000
  jd83                   23.44     0.516      0  19:00      15.338     0.000
  jd85                   23.02     0.180      0  19:00       5.139     0.000
  jd87                   23.08     0.216      0  19:00       6.222     0.000
  jd96                   23.16     0.234      0  19:00       6.728     0.000
  jd99                   22.97     0.180      0  19:00       5.220     0.000
  jd106                  22.63     0.423      0  19:00      11.922     0.000
  jd110                  23.01     0.221      0  19:00       6.346     0.000
  jd114                  22.93     1.522      0  19:00      43.948     0.000
  jd117                   0.01     0.223      0  02:04       0.002     0.000
  jd122                  22.88     1.552      0  19:00      60.902     0.000
  jd123                  21.16     1.389      0  19:00      42.421     0.000
  jd124                  23.54     1.458      0  18:53      45.735     0.000
  jd126                  23.41     1.035      0  19:00      30.639     0.000
  
  
  ***********************
  Outfall Loading Summary
  ***********************
  
  -----------------------------------------------------------
                         Flow       Avg       Max       Total
                         Freq      Flow      Flow      Volume
  Outfall Node           Pcnt       CMS       CMS    10^6 ltr
  -----------------------------------------------------------
  psk1                  98.70     0.072     0.189       5.510
  psk2                  98.69     0.180     0.472      13.953
  psk3                  98.71     0.301     0.798      23.277
  psk4                   0.00     0.000     0.000       0.000
  psk5                  98.71     0.076     0.196       5.852
  psk6                  98.69     0.062     0.163       4.808
  psk7                  98.71     0.517     1.170      40.365
  psk8                   0.00     0.000     0.000       0.000
  -----------------------------------------------------------
  System                74.03     1.208     0.000      93.764
  
  
  ********************
  Link Flow Summary
  ********************
  
  -----------------------------------------------------------------------------
                                 Maximum  Time of Max   Maximum    Max/    Max/
                                  |Flow|   Occurrence   |Veloc|    Full    Full
  Link                 Type          CMS  days hr:min     m/sec    Flow   Depth
  -----------------------------------------------------------------------------
  GQ1                  CONDUIT     0.118     0  19:00      1.57    0.31    0.31
  GQ2                  CONDUIT     0.301     0  19:00      1.78    0.14    0.27
  GQ3                  CONDUIT     0.189     0  19:00      4.33    0.01    0.06
  GQ4                  CONDUIT     0.457     0  19:00      1.62    0.90    1.00
  GQ5                  CONDUIT     0.385     0  19:00      1.03    0.32    0.69
  GQ6                  CONDUIT     0.106     0  19:00      0.99    0.05    0.27
  GQ7                  CONDUIT     1.234     0  19:00      3.54    0.74    0.82
  GQ8                  CONDUIT     0.206     0  19:00      0.89    0.20    0.47
  GQ9                  CONDUIT     0.558     0  19:00      1.61    0.20    0.65
  GQ10                 CONDUIT     1.136     0  02:34      4.10    1.04    1.00
  GQ11                 CONDUIT     0.062     0  19:00      1.47    0.07    0.24
  GQ12                 CONDUIT     0.071     0  19:00      0.51    0.08    0.59
  GQ13                 CONDUIT     0.050     0  19:00      0.42    0.02    0.55
  GQ14                 CONDUIT     0.024     0  19:00      0.70    0.03    0.12
  GQ15                 CONDUIT     0.068     0  19:00      3.36    0.27    0.33
  GQ16                 CONDUIT     0.407     0  19:00      2.94    0.20    0.23
  GQ17                 CONDUIT     0.116     0  19:00      1.02    0.04    0.29
  GQ18                 CONDUIT     0.831     0  19:00      2.13    3.74    0.73
  GQ19                 CONDUIT     0.153     0  19:00      1.23    0.02    0.23
  GQ20                 CONDUIT     0.034     0  19:00      0.38    0.02    0.17
  GQ21                 CONDUIT     0.123     0  19:00      1.17    0.04    0.19
  GQ22                 CONDUIT     0.124     0  19:00      1.33    0.04    0.18
  GQ23                 CONDUIT     0.216     0  19:00      1.71    0.11    0.22
  GQ24                 CONDUIT     0.321     0  19:00      0.95    0.16    0.63
  GQ25                 CONDUIT     0.211     0  19:00      2.73    0.24    0.32
  GQ26                 CONDUIT     0.166     0  19:00      2.05    0.19    0.33
  GQ27                 CONDUIT     0.276     0  19:00      1.42    0.28    0.68
  GQ28                 CONDUIT     0.133     0  19:00      0.40    0.14    0.63
  GQ29                 CONDUIT     0.486     0  02:21      0.97    0.23    1.00
  GQ30                 CONDUIT     0.494     0  19:00      1.75    0.60    1.00
  GQ31                 CONDUIT     0.184     0  19:00      0.92    0.25    0.67
  GQ32                 CONDUIT     0.274     0  19:00      2.48    0.44    0.41
  GQ33                 CONDUIT     0.704     0  19:00      3.11    0.49    0.75
  GQ34                 CONDUIT     0.132     0  19:00      1.24    0.21    0.40
  GQ35                 CONDUIT     0.253     0  19:00      1.84    0.47    0.49
  GQ36                 CONDUIT     0.378     0  19:00      2.50    0.47    0.53
  GQ37                 CONDUIT     0.167     0  19:00      0.83    0.24    0.67
  GQ38                 CONDUIT     0.062     0  19:00      0.35    0.09    0.60
  GQ39                 CONDUIT     0.278     0  19:00      1.30    0.36    0.71
  GQ40                 CONDUIT     0.192     0  19:00      2.00    0.24    0.37
  GQ41                 CONDUIT     0.550     0  19:00      0.98    0.25    0.67
  GQ42                 CONDUIT     0.857     0  19:01      1.98    0.63    0.80
  GQ43                 CONDUIT     1.001     0  19:00      3.68    0.45    0.54
  GQ44                 CONDUIT     0.735     0  19:01      1.46    0.78    1.00
  GQ45                 CONDUIT     0.351     0  19:00      1.81    0.14    0.50
  GQ46                 CONDUIT     0.674     0  19:05      1.86    0.63    0.87
  GQ47                 CONDUIT     0.055     0  19:00      0.32    0.05    0.58
  GQ48                 CONDUIT     0.055     0  19:00      0.32    0.05    0.58
  GQ49                 CONDUIT     0.205     0  19:00      1.17    0.08    0.59
  GQ50                 CONDUIT     0.059     0  19:00      0.84    0.08    0.30
  GQ51                 CONDUIT     0.227     0  19:00      2.04    0.35    0.42
  GQ52                 CONDUIT     0.169     0  19:00      0.72    0.23    0.66
  GQ53                 CONDUIT     1.153     0  19:00      1.81    0.52    0.76
  GQ54                 CONDUIT     0.130     0  19:00      0.72    0.11    0.61
  GQ55                 CONDUIT     0.098     0  19:00      0.57    0.07    0.59
  GQ56                 CONDUIT     1.240     0  19:00      3.78    0.68    0.62
  GQ57                 CONDUIT     0.179     0  19:00      0.90    0.12    0.42
  GQ58                 CONDUIT     0.374     0  19:00      1.15    0.12    0.62
  GQ59                 CONDUIT     0.814     0  19:00      1.89    0.68    0.80
  GQ60                 CONDUIT     0.605     0  19:00      0.54    0.15    0.61
  GQ61                 CONDUIT     0.084     0  19:00      0.37    0.01    0.54
  GQ62                 CONDUIT     0.175     0  19:00      0.45    0.02    0.55
  GQ63                 CONDUIT     0.397     0  19:00      0.94    0.01    0.54
  GQ64                 CONDUIT     0.029     0  19:00      1.03    0.02    0.16
  GQ65                 CONDUIT     0.012     0  19:00      0.26    0.02    0.23
  GQ66                 CONDUIT     0.050     0  19:00      0.51    0.01    0.54
  GQ67                 CONDUIT     0.292     0  02:42      0.36    0.20    1.00
  GQ68                 CONDUIT     0.207     0  19:00      0.43    0.07    0.59
  GQ69                 CONDUIT     0.455     0  19:00      1.35    0.16    0.64
  GQ70                 CONDUIT     0.163     0  19:00      5.75    0.02    0.11
  GQ71                 CONDUIT     0.196     0  19:00      4.20    0.05    0.15
  GQ72                 CONDUIT     1.170     0  19:00      4.57    0.28    0.36
  GQ73                 CONDUIT     0.472     0  19:00      8.83    0.03    0.12
  GQ74                 CONDUIT     0.102     0  19:00      1.00    0.02    0.19
  GQ75                 CONDUIT     0.106     0  19:00      0.23    0.03    0.56
  GQ76                 CONDUIT     0.798     0  19:00      4.41    0.17    0.28
  GQ77                 CONDUIT     0.000     0  00:00      0.00    0.00    0.13
  GQ78                 CONDUIT     0.339     0  19:00      1.58    0.37    0.71
  GQ79                 CONDUIT     0.217     0  19:00      1.08    0.47    0.67
  GQ80                 CONDUIT     0.164     0  19:00      0.76    0.27    0.71
  GQ81                 CONDUIT     0.427     0  02:21      1.51    2.71    1.00
  GQ82                 CONDUIT     0.173     0  19:00      1.27    0.12    0.62
  GQ83                 CONDUIT     0.187     0  19:00      2.11    0.12    0.35
  GQ84                 CONDUIT     0.346     0  19:00      2.13    0.27    0.58
  GQ85                 CONDUIT     0.136     0  19:00      0.67    0.24    0.68
  GQ86                 CONDUIT     0.052     0  19:00      0.48    0.02    0.55
  GQ87                 CONDUIT     0.019     0  19:00      0.11    0.03    0.56
  GQ88                 CONDUIT     0.126     0  19:00      0.69    0.11    0.61
  GQ89                 CONDUIT     0.104     0  19:00      0.56    0.14    0.62
  GQ90                 CONDUIT     0.106     0  19:00      0.72    0.11    0.61
  GQ91                 CONDUIT     0.090     0  19:00      0.63    0.11    0.61
  GQ92                 CONDUIT     0.211     0  19:00      1.39    0.30    0.34
  GQ93                 CONDUIT     0.223     0  19:00      1.21    0.19    0.40
  GQ94                 CONDUIT     0.411     0  19:00      1.90    0.49    0.48
  GQ95                 CONDUIT     0.058     0  19:00      0.21    0.01    0.54
  GQ96                 CONDUIT     0.188     0  19:00      1.04    0.32    0.39
  GQ97                 CONDUIT     0.105     0  19:00      1.53    0.19    0.29
  GQ98                 CONDUIT     0.129     0  19:00      0.67    0.18    0.64
  GQ99                 CONDUIT     0.190     0  19:00      0.63    0.01    0.54
  GQ100                CONDUIT     0.136     0  19:00      2.20    0.23    0.27
  GQ101                CONDUIT     0.095     0  19:00      0.82    0.07    0.59
  GQ102                CONDUIT     0.363     0  19:00      1.24    0.11    0.61
  GQ103                CONDUIT     0.187     0  19:00      0.91    0.29    0.68
  GQ104                CONDUIT     0.328     0  19:00      1.64    0.24    0.67
  GQ105                CONDUIT     0.371     0  02:07      0.74    1.18    1.00
  GQ106                CONDUIT     0.108     0  19:00      0.69    0.11    0.61
  GQ107                CONDUIT     0.396     0  19:00      1.86    0.36    0.71
  GQ108                CONDUIT     0.829     0  02:47      1.65    1.00    1.00
  GQ109                CONDUIT     0.077     0  19:00      1.04    0.10    0.32
  GQ110                CONDUIT     0.127     0  19:00      0.67    0.02    0.55
  GQ111                CONDUIT     0.115     0  19:00      0.77    0.10    0.61
  GQ112                CONDUIT     0.350     0  19:00      2.21    0.06    0.20
  GQ113                CONDUIT     0.193     0  19:00      2.73    0.15    0.30
  GQ114                CONDUIT     0.116     0  19:00      0.24    0.05    0.59
  GQ115                CONDUIT     0.050     0  19:00      0.79    0.01    0.11
  GQ116                CONDUIT     0.073     0  19:00      0.19    0.01    0.54
  GQ117                CONDUIT     0.257     0  19:00      3.32    0.16    0.21
  GQ118                CONDUIT     0.097     0  03:00      1.36    0.03    0.22
  GQ119                CONDUIT     1.050     0  19:00      2.64    0.46    0.74
  GQ120                CONDUIT     0.000     0  00:00      0.00    0.00    0.50
  GQ121                CONDUIT     0.355     0  19:00      0.78    0.25    1.00
  GQ122                CONDUIT     0.149     0  19:00      1.27    0.03    0.56
  GQ123                CONDUIT     0.099     0  19:00      1.11    0.05    0.57
  GQ124                CONDUIT     0.062     0  19:00      0.80    0.03    0.23
  GQ125                CONDUIT     0.123     0  19:00      0.76    0.14    0.63
  GQ126                CONDUIT     0.151     0  19:00      0.81    0.14    0.63
  GQ127                CONDUIT     0.350     0  19:00      1.50    0.45    0.47
  GQ128                CONDUIT     0.515     0  19:00      2.24    0.11    0.27
  GQ129                CONDUIT     0.820     0  19:00      1.63    0.62    1.00
  GQ130                CONDUIT     0.940     0  02:52      3.39    0.88    1.00
  GQ131                CONDUIT     0.299     0  19:00      1.41    0.35    0.70
  
  
  ***************************
  Flow Classification Summary
  ***************************
  
  -------------------------------------------------------------------------------------
                      Adjusted    ---------- Fraction of Time in Flow Class ---------- 
                       /Actual         Up    Down  Sub   Sup   Up    Down  Norm  Inlet 
  Conduit               Length    Dry  Dry   Dry   Crit  Crit  Crit  Crit  Ltd   Ctrl  
  -------------------------------------------------------------------------------------
  GQ1                     1.00   0.01  0.00  0.00  0.01  0.98  0.00  0.00  0.00  0.00
  GQ2                     1.00   0.01  0.00  0.00  0.01  0.97  0.00  0.00  0.96  0.00
  GQ3                     1.00   0.01  0.00  0.00  0.00  0.99  0.00  0.00  0.12  0.00
  GQ4                     1.00   0.01  0.00  0.00  0.99  0.00  0.00  0.00  0.83  0.00
  GQ5                     1.00   0.01  0.00  0.00  0.99  0.00  0.00  0.00  0.96  0.00
  GQ6                     1.00   0.01  0.00  0.00  0.99  0.00  0.00  0.00  0.96  0.00
  GQ7                     1.00   0.01  0.00  0.00  0.00  0.99  0.00  0.00  0.08  0.00
  GQ8                     1.00   0.01  0.00  0.00  0.99  0.00  0.00  0.00  0.95  0.00
  GQ9                     1.00   0.01  0.00  0.00  0.98  0.00  0.00  0.00  0.96  0.00
  GQ10                    1.00   0.01  0.00  0.00  0.32  0.66  0.00  0.00  0.87  0.00
  GQ11                    1.00   0.01  0.00  0.00  0.27  0.71  0.00  0.00  0.96  0.00
  GQ12                    1.00   0.01  0.00  0.00  0.98  0.00  0.00  0.00  0.96  0.00
  GQ13                    1.00   0.01  0.00  0.00  0.99  0.00  0.00  0.00  0.96  0.00
  GQ14                    1.00   0.01  0.00  0.00  0.99  0.00  0.00  0.00  0.00  0.00
  GQ15                    1.00   0.01  0.00  0.00  0.00  0.99  0.00  0.00  0.01  0.00
  GQ16                    1.00   0.01  0.00  0.00  0.00  0.99  0.00  0.00  0.00  0.00
  GQ17                    1.00   0.01  0.00  0.00  0.97  0.02  0.00  0.00  0.96  0.00
  GQ18                    1.00   0.01  0.00  0.00  0.99  0.00  0.00  0.00  0.02  0.00
  GQ19                    1.00   0.01  0.00  0.00  0.95  0.04  0.00  0.00  0.96  0.00
  GQ20                    1.00   0.01  0.00  0.00  0.99  0.00  0.00  0.00  0.96  0.00
  GQ21                    1.00   0.01  0.00  0.00  0.11  0.88  0.00  0.00  0.96  0.00
  GQ22                    1.00   0.01  0.00  0.00  0.05  0.94  0.00  0.00  0.96  0.00
  GQ23                    1.00   0.01  0.00  0.00  0.00  0.98  0.00  0.00  0.06  0.00
  GQ24                    1.00   0.01  0.00  0.00  0.99  0.00  0.00  0.00  0.96  0.00
  GQ25                    1.00   0.01  0.00  0.00  0.00  0.99  0.00  0.00  0.00  0.00
  GQ26                    1.00   0.01  0.00  0.00  0.00  0.99  0.00  0.00  0.95  0.00
  GQ27                    1.00   0.01  0.00  0.00  0.96  0.02  0.00  0.00  0.96  0.00
  GQ28                    1.00   0.01  0.00  0.00  0.99  0.00  0.00  0.00  0.96  0.00
  GQ29                    1.00   0.01  0.00  0.00  0.99  0.00  0.00  0.00  0.04  0.00
  GQ30                    1.00   0.01  0.00  0.00  0.98  0.01  0.00  0.00  0.03  0.00
  GQ31                    1.00   0.01  0.00  0.00  0.99  0.00  0.00  0.00  0.96  0.00
  GQ32                    1.00   0.01  0.00  0.00  0.00  0.99  0.00  0.00  0.01  0.00
  GQ33                    1.00   0.01  0.00  0.00  0.83  0.15  0.00  0.00  0.96  0.00
  GQ34                    1.00   0.01  0.00  0.00  0.99  0.00  0.00  0.00  0.96  0.00
  GQ35                    1.00   0.01  0.00  0.00  0.00  0.99  0.00  0.00  0.79  0.00
  GQ36                    1.00   0.01  0.00  0.00  0.00  0.99  0.00  0.00  0.95  0.00
  GQ37                    1.00   0.01  0.00  0.00  0.99  0.00  0.00  0.00  0.96  0.00
  GQ38                    1.00   0.01  0.00  0.00  0.99  0.00  0.00  0.00  0.96  0.00
  GQ39                    1.00   0.01  0.00  0.00  0.98  0.01  0.00  0.00  0.96  0.00
  GQ40                    1.00   0.01  0.00  0.00  0.00  0.98  0.00  0.00  0.96  0.00
  GQ41                    1.00   0.01  0.00  0.00  0.99  0.00  0.00  0.00  0.96  0.00
  GQ42                    1.00   0.01  0.00  0.00  0.99  0.00  0.00  0.00  0.92  0.00
  GQ43                    1.00   0.01  0.00  0.00  0.00  0.99  0.00  0.00  0.96  0.00
  GQ44                    1.00   0.01  0.00  0.00  0.99  0.00  0.00  0.00  0.69  0.00
  GQ45                    1.00   0.01  0.00  0.00  0.06  0.93  0.00  0.00  0.96  0.00
  GQ46                    1.00   0.01  0.00  0.00  0.26  0.73  0.00  0.00  0.85  0.00
  GQ47                    1.00   0.01  0.00  0.00  0.99  0.00  0.00  0.00  0.96  0.00
  GQ48                    1.00   0.01  0.00  0.00  0.99  0.00  0.00  0.00  0.96  0.00
  GQ49                    1.00   0.01  0.00  0.00  0.98  0.00  0.00  0.00  0.96  0.00
  GQ50                    1.00   0.01  0.00  0.00  0.99  0.00  0.00  0.00  0.96  0.00
  GQ51                    1.00   0.01  0.00  0.00  0.00  0.99  0.00  0.00  0.85  0.00
  GQ52                    1.00   0.01  0.00  0.00  0.99  0.00  0.00  0.00  0.93  0.00
  GQ53                    1.00   0.01  0.00  0.00  0.99  0.00  0.00  0.00  0.96  0.00
  GQ54                    1.00   0.01  0.00  0.00  0.99  0.00  0.00  0.00  0.96  0.00
  GQ55                    1.00   0.01  0.00  0.00  0.99  0.00  0.00  0.00  0.96  0.00
  GQ56                    1.00   0.01  0.00  0.00  0.00  0.99  0.00  0.00  0.90  0.00
  GQ57                    1.00   0.01  0.00  0.00  0.99  0.00  0.00  0.00  0.96  0.00
  GQ58                    1.00   0.01  0.00  0.00  0.98  0.01  0.00  0.00  0.96  0.00
  GQ59                    1.00   0.01  0.00  0.00  0.99  0.00  0.00  0.00  0.96  0.00
  GQ60                    1.00   0.01  0.00  0.00  0.99  0.00  0.00  0.00  0.06  0.00
  GQ61                    1.00   0.01  0.00  0.00  0.99  0.00  0.00  0.00  0.96  0.00
  GQ62                    1.00   0.01  0.00  0.00  0.99  0.00  0.00  0.00  0.96  0.00
  GQ63                    1.00   0.01  0.00  0.00  0.98  0.01  0.00  0.00  0.96  0.00
  GQ64                    1.00   0.01  0.00  0.00  0.25  0.73  0.00  0.00  0.96  0.00
  GQ65                    1.00   0.01  0.00  0.00  0.99  0.00  0.00  0.00  0.96  0.00
  GQ66                    1.00   0.01  0.00  0.00  0.98  0.00  0.00  0.00  0.96  0.00
  GQ67                    1.00   0.01  0.00  0.00  0.99  0.00  0.00  0.00  0.02  0.00
  GQ68                    1.00   0.01  0.00  0.00  0.99  0.00  0.00  0.00  0.96  0.00
  GQ69                    1.00   0.01  0.00  0.00  0.98  0.01  0.00  0.00  0.96  0.00
  GQ70                    1.00   0.01  0.00  0.00  0.00  0.99  0.00  0.00  0.01  0.00
  GQ71                    1.00   0.01  0.00  0.00  0.00  0.99  0.00  0.00  0.10  0.00
  GQ72                    1.00   0.01  0.00  0.00  0.00  0.99  0.00  0.00  0.26  0.00
  GQ73                    1.00   0.01  0.00  0.00  0.00  0.99  0.00  0.00  0.01  0.00
  GQ74                    1.00   0.01  0.00  0.00  0.96  0.03  0.00  0.00  0.96  0.00
  GQ75                    1.00   0.01  0.00  0.00  0.99  0.00  0.00  0.00  0.96  0.00
  GQ76                    1.00   0.01  0.00  0.00  0.00  0.99  0.00  0.00  0.14  0.00
  GQ77                    1.00   0.01  0.99  0.00  0.00  0.00  0.00  0.00  0.00  0.00
  GQ78                    1.00   0.01  0.00  0.00  0.99  0.00  0.00  0.00  0.96  0.00
  GQ79                    1.00   0.01  0.00  0.00  0.99  0.00  0.00  0.00  0.03  0.00
  GQ80                    1.00   0.01  0.00  0.00  0.99  0.00  0.00  0.00  0.88  0.00
  GQ81                    1.00   0.01  0.00  0.00  0.99  0.00  0.00  0.00  0.03  0.00
  GQ82                    1.00   0.01  0.00  0.00  0.98  0.01  0.00  0.00  0.96  0.00
  GQ83                    1.00   0.01  0.00  0.00  0.00  0.99  0.00  0.00  0.96  0.00
  GQ84                    1.00   0.01  0.00  0.00  0.08  0.90  0.00  0.00  0.96  0.00
  GQ85                    1.00   0.01  0.00  0.00  0.99  0.00  0.00  0.00  0.89  0.00
  GQ86                    1.00   0.01  0.00  0.00  0.99  0.00  0.00  0.00  0.96  0.00
  GQ87                    1.00   0.01  0.00  0.00  0.99  0.00  0.00  0.00  0.96  0.00
  GQ88                    1.00   0.01  0.00  0.00  0.99  0.00  0.00  0.00  0.96  0.00
  GQ89                    1.00   0.01  0.00  0.00  0.98  0.00  0.00  0.00  0.96  0.00
  GQ90                    1.00   0.01  0.00  0.00  0.98  0.01  0.00  0.00  0.96  0.00
  GQ91                    1.00   0.01  0.00  0.00  0.98  0.00  0.00  0.00  0.96  0.00
  GQ92                    1.00   0.01  0.00  0.00  0.89  0.09  0.00  0.00  0.00  0.00
  GQ93                    1.00   0.01  0.00  0.00  0.99  0.00  0.00  0.00  0.96  0.00
  GQ94                    1.00   0.01  0.00  0.00  0.07  0.92  0.00  0.00  0.06  0.00
  GQ95                    1.00   0.01  0.00  0.00  0.99  0.00  0.00  0.00  0.96  0.00
  GQ96                    1.00   0.01  0.00  0.00  0.99  0.00  0.00  0.00  0.65  0.00
  GQ97                    1.00   0.01  0.00  0.00  0.01  0.98  0.00  0.00  0.37  0.00
  GQ98                    1.00   0.01  0.00  0.00  0.99  0.00  0.00  0.00  0.96  0.00
  GQ99                    1.00   0.01  0.00  0.00  0.98  0.00  0.00  0.00  0.96  0.00
  GQ100                   1.00   0.01  0.00  0.00  0.00  0.99  0.00  0.00  0.00  0.00
  GQ101                   1.00   0.01  0.00  0.00  0.98  0.00  0.00  0.00  0.96  0.00
  GQ102                   1.00   0.01  0.00  0.00  0.98  0.01  0.00  0.00  0.96  0.00
  GQ103                   1.00   0.01  0.00  0.00  0.99  0.00  0.00  0.00  0.96  0.00
  GQ104                   1.00   0.01  0.00  0.00  0.98  0.00  0.00  0.00  0.96  0.00
  GQ105                   1.00   0.01  0.00  0.00  0.99  0.00  0.00  0.00  0.03  0.00
  GQ106                   1.00   0.01  0.00  0.00  0.98  0.00  0.00  0.00  0.96  0.00
  GQ107                   1.00   0.01  0.00  0.00  0.98  0.01  0.00  0.00  0.96  0.00
  GQ108                   1.00   0.01  0.00  0.00  0.99  0.00  0.00  0.00  0.04  0.00
  GQ109                   1.00   0.01  0.00  0.00  0.96  0.03  0.00  0.00  0.96  0.00
  GQ110                   1.00   0.01  0.00  0.00  0.98  0.00  0.00  0.00  0.96  0.00
  GQ111                   1.00   0.01  0.00  0.00  0.98  0.00  0.00  0.00  0.96  0.00
  GQ112                   1.00   0.01  0.00  0.00  0.00  0.99  0.00  0.00  0.95  0.00
  GQ113                   1.00   0.01  0.00  0.00  0.00  0.99  0.00  0.00  0.95  0.00
  GQ114                   1.00   0.01  0.00  0.00  0.99  0.00  0.00  0.00  0.04  0.00
  GQ115                   1.00   0.01  0.00  0.00  0.98  0.01  0.00  0.00  0.96  0.00
  GQ116                   1.00   0.01  0.00  0.00  0.99  0.00  0.00  0.00  0.96  0.00
  GQ117                   1.00   0.01  0.00  0.00  0.00  0.99  0.00  0.00  0.00  0.00
  GQ118                   1.00   0.01  0.00  0.00  0.33  0.65  0.00  0.00  0.96  0.00
  GQ119                   1.00   0.01  0.00  0.00  0.92  0.07  0.00  0.00  0.96  0.00
  GQ120                   1.00   0.01  0.03  0.00  0.96  0.00  0.00  0.00  0.00  0.00
  GQ121                   1.00   0.01  0.00  0.00  0.98  0.00  0.00  0.00  0.04  0.00
  GQ122                   1.00   0.01  0.00  0.00  0.97  0.02  0.00  0.00  0.96  0.00
  GQ123                   1.00   0.01  0.00  0.00  0.97  0.02  0.00  0.00  0.96  0.00
  GQ124                   1.00   0.01  0.00  0.00  0.98  0.00  0.00  0.00  0.96  0.00
  GQ125                   1.00   0.01  0.00  0.00  0.98  0.00  0.00  0.00  0.96  0.00
  GQ126                   1.00   0.01  0.00  0.00  0.98  0.00  0.00  0.00  0.96  0.00
  GQ127                   1.00   0.01  0.00  0.00  0.99  0.00  0.00  0.00  0.67  0.00
  GQ128                   1.00   0.01  0.00  0.00  0.01  0.97  0.00  0.00  0.94  0.00
  GQ129                   1.00   0.01  0.00  0.00  0.99  0.00  0.00  0.00  0.83  0.00
  GQ130                   1.00   0.01  0.00  0.00  0.69  0.30  0.00  0.00  0.83  0.00
  GQ131                   1.00   0.01  0.00  0.00  0.99  0.00  0.00  0.00  0.96  0.00
  
  
  *************************
  Conduit Surcharge Summary
  *************************
  
  ----------------------------------------------------------------------------
                                                           Hours        Hours 
                         --------- Hours Full --------   Above Full   Capacity
  Conduit                Both Ends  Upstream  Dnstream   Normal Flow   Limited
  ----------------------------------------------------------------------------
  GQ4                         1.18      1.18     23.02      0.01         0.01
  GQ5                         0.01      0.01     22.90      0.01         0.01
  GQ7                         0.01      0.01      0.22      0.01         0.01
  GQ9                         0.01      0.01     23.28      0.01         0.01
  GQ10                        1.81      1.81     23.36      0.21         0.01
  GQ12                        0.01      0.01     20.64      0.01         0.01
  GQ13                        0.01      0.01      0.37      0.01         0.01
  GQ18                        0.01      0.01     13.54     18.91         0.01
  GQ24                        0.01      0.01     23.16      0.01         0.01
  GQ27                        0.01      0.01     22.73      0.01         0.01
  GQ28                        0.01      0.01     22.95      0.01         0.01
  GQ29                       22.64     22.64     22.95      0.01         0.01
  GQ30                       22.73     22.73     23.06      0.01         0.01
  GQ31                        0.01      0.01     23.39      0.01         0.01
  GQ33                        0.01      0.01     23.39      0.01         0.01
  GQ37                        0.01      0.01     23.25      0.01         0.01
  GQ38                        0.01      0.01     23.25      0.01         0.01
  GQ39                        0.01      0.01     20.64      0.01         0.01
  GQ41                        0.01      0.01     22.91      0.01         0.01
  GQ42                        0.01      0.01     23.00      0.01         0.01
  GQ44                        1.65      1.65     13.54      0.01         0.01
  GQ46                        0.01      0.01      1.65      0.01         0.01
  GQ47                        0.01      0.01     23.02      0.01         0.01
  GQ48                        0.01      0.01     23.13      0.01         0.01
  GQ49                        0.01      0.01     23.13      0.01         0.01
  GQ52                        0.01      0.01     22.64      0.01         0.01
  GQ53                        0.01      0.01     23.05      0.01         0.01
  GQ54                        0.01      0.01     23.15      0.01         0.01
  GQ55                        0.01      0.01     23.15      0.01         0.01
  GQ58                        0.01      0.01     22.81      0.01         0.01
  GQ59                        0.01      0.01     22.81      0.01         0.01
  GQ61                        0.01      0.01     22.28      0.01         0.01
  GQ62                        0.01      0.01     22.37      0.01         0.01
  GQ63                        0.01      0.01     22.45      0.01         0.01
  GQ66                        0.01      0.01     22.47      0.01         0.01
  GQ67                       22.30     22.30     22.38      0.01         0.01
  GQ68                        0.01      0.01     22.64      0.01         0.01
  GQ69                        0.01      0.01     22.98      0.01         0.01
  GQ75                        0.01      0.01     22.63      0.01         0.01
  GQ78                        0.01      0.01     23.21      0.01         0.01
  GQ79                        0.01      0.01     23.21      0.01         0.01
  GQ80                        0.01      0.01     19.37      0.01         0.01
  GQ81                       19.30     19.37     20.64     15.71        13.73
  GQ82                        0.01      0.01     20.64      0.01         0.01
  GQ85                        0.01      0.01     23.44      0.01         0.01
  GQ86                        0.01      0.01     23.03      0.01         0.01
  GQ87                        0.01      0.01     23.03      0.01         0.01
  GQ88                        0.01      0.01     23.08      0.01         0.01
  GQ89                        0.01      0.01     22.73      0.01         0.01
  GQ90                        0.01      0.01     22.58      0.01         0.01
  GQ91                        0.01      0.01     22.83      0.01         0.01
  GQ95                        0.01      0.01     23.16      0.01         0.01
  GQ98                        0.01      0.01     22.97      0.01         0.01
  GQ99                        0.01      0.01     22.42      0.01         0.01
  GQ101                       0.01      0.01     22.84      0.01         0.01
  GQ102                       0.01      0.01     22.94      0.01         0.01
  GQ103                       0.01      0.01     23.09      0.01         0.01
  GQ104                       0.01      0.01     23.09      0.01         0.01
  GQ105                      22.88     22.88     22.94     20.48         0.01
  GQ106                       0.01      0.01     22.93      0.01         0.01
  GQ107                       0.01      0.01     22.93      0.01         0.01
  GQ108                      17.42     17.42     22.88      0.01         0.01
  GQ110                       0.01      0.01     22.63      0.01         0.01
  GQ111                       0.01      0.01     22.84      0.01         0.01
  GQ114                       0.01      0.01     23.11      0.01         0.01
  GQ116                       0.01      0.01     23.01      0.01         0.01
  GQ119                       0.01      0.01     23.15      0.01         0.01
  GQ120                       0.01      0.01     23.07      0.01         0.01
  GQ121                      22.92     22.92     23.15      0.01         0.01
  GQ122                       0.01      0.01     22.92      0.01         0.01
  GQ123                       0.01      0.01     22.95      0.01         0.01
  GQ125                       0.01      0.01     22.83      0.01         0.01
  GQ126                       0.01      0.01     22.84      0.01         0.01
  GQ129                       0.22      0.22     23.16      0.01         0.01
  GQ130                       0.80      0.80     23.54      0.01         0.01
  GQ131                       0.01      0.01     23.41      0.01         0.01
  

  Analysis begun on:  Wed Mar 29 16:33:34 2023
  Analysis ended on:  Wed Mar 29 16:34:25 2023
  Total elapsed time: 00:00:51