
  OWA STORM WATER MANAGEMENT MODEL - VERSION v5.1.14 (OWA 2022-07-31)
  --------------------------------------------------------------

  INP file created by DSDAConvertToSwmmTools 
  version 0.0.1 EcoVista 
  Title/Notes: 
  
  
  *********************************************************
  NOTE: The summary statistics displayed in this report are
  based on results found at every computational time step,  
  not just on results from each reporting time step.
  *********************************************************
  
  ****************
  Analysis Options
  ****************
  Flow Units ............... CMS
  Process Models:
    Rainfall/Runoff ........ YES
    RDII ................... NO
    Snowmelt ............... NO
    Groundwater ............ NO
    Flow Routing ........... YES
    Ponding Allowed ........ NO
    Water Quality .......... NO
  Infiltration Method ...... GREEN_AMPT
  Flow Routing Method ...... DYNWAVE
  Surcharge Method ......... EXTRAN
  Starting Date ............ 07/15/2020 00:00:00
  Ending Date .............. 07/15/2020 10:00:00
  Antecedent Dry Days ...... 0.0
  Report Time Step ......... 00:30:00
  Wet Time Step ............ 00:05:00
  Dry Time Step ............ 01:00:00
  Routing Time Step ........ 30.00 sec
  Variable Time Step ....... YES
  Maximum Trials ........... 8
  Number of Threads ........ 1
  Head Tolerance ........... 0.001500 m
  
  
  **************************        Volume         Depth
  Runoff Quantity Continuity     hectare-m            mm
  **************************     ---------       -------
  Total Precipitation ......       128.288        32.100
  Evaporation Loss .........         3.287         0.822
  Infiltration Loss ........        34.284         8.579
  Surface Runoff ...........        83.737        20.953
  Final Storage ............         7.097         1.776
  Continuity Error (%) .....        -0.091
  
  
  **************************        Volume        Volume
  Flow Routing Continuity        hectare-m      10^6 ltr
  **************************     ---------     ---------
  Dry Weather Inflow .......         0.000         0.000
  Wet Weather Inflow .......        83.678       836.790
  Groundwater Inflow .......         0.000         0.000
  RDII Inflow ..............         0.000         0.000
  External Inflow ..........         0.000         0.000
  External Outflow .........         7.815        78.149
  Flooding Loss ............        74.488       744.888
  Evaporation Loss .........         0.000         0.000
  Exfiltration Loss ........         0.000         0.000
  Initial Stored Volume ....         0.000         0.000
  Final Stored Volume ......         1.234        12.337
  Continuity Error (%) .....         0.169
  
  
  *************************
  Highest Continuity Errors
  *************************
  Node jd51 (6.52%)
  Node jd64 (5.26%)
  Node jd59 (5.25%)
  Node jd31 (4.79%)
  Node jd55 (4.41%)
  
  
  ***************************
  Time-Step Critical Elements
  ***************************
  Link GQ73 (94.23%)
  
  
  ********************************
  Highest Flow Instability Indexes
  ********************************
  Link GQ67 (17)
  Link GQ29 (7)
  Link GQ44 (5)
  Link GQ114 (4)
  Link GQ3 (4)
  
  
  *************************
  Routing Time Step Summary
  *************************
  Minimum Time Step           :     4.77 sec
  Average Time Step           :     8.25 sec
  Maximum Time Step           :    30.00 sec
  Percent in Steady State     :    -0.00
  Average Iterations per Step :     4.05
  Percent Not Converging      :    12.46
  
  
  ***************************
  Subcatchment Runoff Summary
  ***************************
  
  ------------------------------------------------------------------------------------------------------------------------------
                            Total      Total      Total      Total     Imperv       Perv      Total       Total     Peak  Runoff
                           Precip      Runon       Evap      Infil     Runoff     Runoff     Runoff      Runoff   Runoff   Coeff
  Subcatchment                 mm         mm         mm         mm         mm         mm         mm    10^6 ltr      CMS
  ------------------------------------------------------------------------------------------------------------------------------
  1                         32.10       0.00       0.49      17.98      12.70       0.00      12.70        5.03     0.43   0.396
  2                         32.10       0.00       0.88       6.83      22.38       0.00      22.38       20.24     1.61   0.697
  3                         32.10       0.00       0.92       5.86      23.40       0.00      23.40        9.36     0.81   0.729
  4                         32.10       0.00       0.95       5.03      24.22       0.00      24.22        2.03     0.18   0.754
  5                         32.10       0.00       0.84       8.18      21.42       0.00      21.42        2.65     0.23   0.667
  6                         32.10       0.00       0.80       9.20      20.54       0.00      20.54        1.91     0.17   0.640
  7                         32.10       0.00       0.84       8.21      21.24       0.00      21.24        9.26     0.76   0.662
  8                         32.10       0.00       1.06       1.80      26.98       0.00      26.98        3.76     0.32   0.841
  9                         32.10       0.00       1.09       0.90      27.81       0.00      27.81        3.25     0.28   0.866
  10                        32.10       0.00       0.94       5.22      23.98       0.00      23.98        5.40     0.47   0.747
  11                        32.10       0.00       1.02       3.07      25.83       0.00      25.83       12.80     1.09   0.805
  12                        32.10       0.00       0.80       9.23      20.42       0.00      20.42        9.96     0.86   0.636
  13                        32.10       0.00       1.00       3.46      25.49       0.00      25.49       11.53     0.98   0.794
  14                        32.10       0.00       1.00       3.50      25.53       0.00      25.53        4.82     0.42   0.795
  15                        32.10       0.00       0.93       5.64      23.59       0.00      23.59        7.97     0.69   0.735
  16                        32.10       0.00       0.96       4.66      24.43       0.00      24.43        7.22     0.62   0.761
  17                        32.10       0.00       0.90       6.41      22.90       0.00      22.90        9.58     0.82   0.714
  18                        32.10       0.00       1.03       2.53      26.30       0.00      26.30       10.86     0.92   0.819
  19                        32.10       0.00       1.03       2.64      26.18       0.00      26.18        5.89     0.50   0.816
  20                        32.10       0.00       1.02       2.82      25.92       0.00      25.92       13.91     1.12   0.808
  21                        32.10       0.00       1.09       0.94      27.69       0.00      27.69        8.69     0.74   0.862
  22                        32.10       0.00       1.07       1.52      27.16       0.00      27.16        3.34     0.28   0.846
  23                        32.10       0.00       0.99       3.93      25.03       0.00      25.03       14.33     1.19   0.780
  24                        32.10       0.00       0.95       4.90      24.15       0.00      24.15        4.28     0.35   0.752
  25                        32.10       0.00       1.02       3.01      25.94       0.00      25.94        5.25     0.46   0.808
  26                        32.10       0.00       0.87       7.32      21.97       0.00      21.97        7.71     0.62   0.684
  27                        32.10       0.00       1.04       2.40      26.29       0.00      26.29       11.11     0.90   0.819
  28                        32.10       0.00       1.06       1.77      26.91       0.00      26.91       12.72     1.05   0.838
  29                        32.10       0.00       0.95       4.98      24.22       0.00      24.22        5.65     0.49   0.754
  30                        32.10       0.00       1.08       1.08      27.72       0.00      27.72        1.99     0.18   0.864
  31                        32.10       0.00       1.10       0.67      27.95       0.00      27.95        6.16     0.53   0.871
  32                        32.10       0.00       1.07       1.43      27.27       0.00      27.27       11.78     1.00   0.849
  33                        32.10       0.00       1.09       1.04      27.58       0.00      27.58        9.72     0.82   0.859
  34                        32.10       0.00       1.01       3.25      25.68       0.00      25.68        7.53     0.64   0.800
  35                        32.10       0.00       1.04       2.42      26.40       0.00      26.40       10.95     0.93   0.822
  36                        32.10       0.00       0.86       7.65      21.85       0.00      21.85        8.60     0.74   0.681
  37                        32.10       0.00       1.06       1.73      27.00       0.00      27.00        5.99     0.51   0.841
  38                        32.10       0.00       1.00       3.63      25.35       0.00      25.35        9.67     0.83   0.790
  39                        32.10       0.00       0.90       6.38      22.95       0.00      22.95        9.69     0.84   0.715
  40                        32.10       0.00       1.00       3.47      25.49       0.00      25.49        5.83     0.50   0.794
  41                        32.10       0.00       1.02       2.83      26.11       0.00      26.11        5.15     0.45   0.813
  42                        32.10       0.00       1.02       2.85      25.92       0.00      25.92        6.40     0.53   0.808
  43                        32.10       0.00       0.86       7.51      21.88       0.00      21.88       17.30     1.42   0.682
  44                        32.10       0.00       0.92       5.85      23.32       0.00      23.32       11.27     0.93   0.726
  45                        32.10       0.00       0.86       7.44      21.97       0.00      21.97       15.90     1.33   0.684
  46                        32.10       0.00       0.83       8.30      21.31       0.00      21.31       10.65     0.92   0.664
  47                        32.10       0.00       0.87       7.10      22.27       0.00      22.27       25.96     2.17   0.694
  48                        32.10       0.00       1.04       2.22      26.43       0.00      26.43       15.34     1.23   0.823
  49                        32.10       0.00       0.96       4.75      24.21       0.00      24.21       16.39     1.32   0.754
  50                        32.10       0.00       1.06       1.81      26.69       0.00      26.69       10.49     0.80   0.832
  51                        32.10       0.00       1.01       3.12      25.58       0.00      25.58        4.79     0.37   0.797
  52                        32.10       0.00       0.49      18.01      12.71       0.00      12.71       13.04     1.14   0.396
  53                        32.10       0.00       0.71      11.69      18.33       0.00      18.33       19.52     1.68   0.571
  54                        32.10       0.00       0.88       6.91      22.47       0.00      22.47        5.48     0.47   0.700
  55                        32.10       0.00       0.50      17.68      12.99       0.00      12.99       10.25     0.89   0.405
  56                        32.10       0.00       0.19      26.66       4.98       0.00       4.98        4.06     0.35   0.155
  57                        32.10       0.00       1.00       3.57      25.26       0.00      25.26       20.99     1.68   0.787
  58                        32.10       0.00       0.92       5.67      23.56       0.00      23.56        3.88     0.33   0.734
  59                        32.10       0.00       0.90       6.30      23.09       0.00      23.09        2.94     0.26   0.719
  60                        32.10       0.00       0.34      22.43       8.77       0.00       8.77        2.51     0.22   0.273
  61                        32.10       0.00       0.53      17.06      13.46       0.00      13.46        5.07     0.44   0.419
  62                        32.10       0.00       0.73      11.17      18.66       0.00      18.66       21.87     1.81   0.581
  63                        32.10       0.00       1.00       3.54      25.21       0.00      25.21       48.76     3.77   0.785
  64                        32.10       0.00       0.75      10.79      19.11       0.00      19.11        4.10     0.35   0.595
  65                        32.10       0.00       1.01       3.13      25.59       0.00      25.59       17.21     1.35   0.797
  66                        32.10       0.00       0.80       9.28      20.29       0.00      20.29        5.17     0.43   0.632
  67                        32.10       0.00       0.75      10.78      19.17       0.00      19.17        6.20     0.53   0.597
  68                        32.10       0.00       0.89       6.52      22.84       0.00      22.84        2.54     0.22   0.711
  69                        32.10       0.00       0.52      17.09      13.60       0.00      13.60        4.35     0.38   0.424
  70                        32.10       0.00       0.74      10.97      18.86       0.00      18.86       15.52     1.32   0.588
  71                        32.10       0.00       0.91       6.00      23.29       0.00      23.29        2.86     0.25   0.726
  72                        32.10       0.00       0.96       4.58      24.55       0.00      24.55        3.06     0.27   0.765
  73                        32.10       0.00       0.87       7.17      22.32       0.00      22.32        3.71     0.32   0.695
  74                        32.10       0.00       0.83       8.34      21.27       0.00      21.27        4.58     0.40   0.663
  75                        32.10       0.00       0.92       5.69      23.58       0.00      23.58        3.40     0.30   0.734
  76                        32.10       0.00       0.97       4.31      24.81       0.00      24.81        2.40     0.21   0.773
  77                        32.10       0.00       1.04       2.47      26.39       0.00      26.39        2.86     0.25   0.822
  78                        32.10       0.00       1.00       3.51      25.46       0.00      25.46        2.80     0.24   0.793
  79                        32.10       0.00       0.44      19.56      11.34       0.00      11.34       12.02     1.04   0.353
  80                        32.10       0.00       0.83       8.47      21.02       0.00      21.02       13.16     1.10   0.655
  81                        32.10       0.00       0.84       8.10      21.35       0.00      21.35        9.30     0.77   0.665
  82                        32.10       0.00       0.80       9.12      20.46       0.00      20.46       18.76     1.55   0.637
  83                        32.10       0.00       1.00       3.37      25.63       0.00      25.63        3.13     0.27   0.798
  84                        32.10       0.00       0.95       4.98      24.16       0.00      24.16        2.88     0.25   0.753
  85                        32.10       0.00       1.11       0.24      28.39       0.00      28.39        2.64     0.23   0.884
  86                        32.10       0.00       1.03       2.71      26.18       0.00      26.18        3.86     0.33   0.815
  87                        32.10       0.00       1.10       0.69      27.90       0.00      27.90        3.67     0.31   0.869
  88                        32.10       0.00       0.98       4.00      25.07       0.00      25.07        2.40     0.21   0.781
  89                        32.10       0.00       1.03       2.58      26.31       0.00      26.31        5.07     0.44   0.820
  90                        32.10       0.00       1.12       0.01      28.64       0.00      28.64        0.33     0.03   0.892
  91                        32.10       0.00       0.93       5.38      23.67       0.00      23.67        5.16     0.42   0.738
  92                        32.10       0.00       1.04       2.50      26.37       0.00      26.37        3.30     0.29   0.821
  93                        32.10       0.00       0.84       7.97      21.52       0.00      21.52       11.02     0.94   0.670
  94                        32.10       0.00       0.76      10.40      19.54       0.00      19.54        1.37     0.12   0.609
  95                        32.10       0.00       1.12       0.04      28.56       0.00      28.56        0.62     0.05   0.890
  96                        32.10       0.00       0.91       6.22      23.12       0.00      23.12        2.82     0.25   0.720
  97                        32.10       0.00       1.10       0.68      27.98       0.00      27.98        2.78     0.24   0.872
  98                        32.10       0.00       0.91       6.06      23.26       0.00      23.26        2.87     0.25   0.725
  99                        32.10       0.00       0.45      19.21      11.69       0.00      11.69        4.34     0.38   0.364
  100                       32.10       0.00       0.50      17.76      12.98       0.00      12.98        3.33     0.29   0.404
  101                       32.10       0.00       0.51      17.41      13.27       0.00      13.27        6.50     0.56   0.414
  102                       32.10       0.00       0.84       8.16      21.38       0.00      21.38        5.21     0.45   0.666
  103                       32.10       0.00       0.28      24.10       7.29       0.00       7.29        2.65     0.23   0.227
  104                       32.10       0.00       0.19      26.69       4.93       0.00       4.93        4.77     0.42   0.153
  105                       32.10       0.00       0.92       5.70      23.59       0.00      23.59        3.09     0.27   0.735
  106                       32.10       0.00       0.50      17.80      12.92       0.00      12.92        3.15     0.27   0.402
  
  
  ******************
  Node Depth Summary
  ******************
  
  ---------------------------------------------------------------------------------
                                 Average  Maximum  Maximum  Time of Max    Reported
                                   Depth    Depth      HGL   Occurrence   Max Depth
  Node                 Type       Meters   Meters   Meters  days hr:min      Meters
  ---------------------------------------------------------------------------------
  jd1                  JUNCTION     0.11     0.18   273.18     0  03:00        0.18
  jd2                  JUNCTION     0.31     0.59   267.59     0  03:02        0.58
  jd3                  JUNCTION     2.75     3.00   266.00     0  02:29        3.00
  jd4                  JUNCTION     1.73     3.00   270.00     0  02:40        3.00
  jd5                  JUNCTION     0.08     0.13   274.13     0  03:00        0.13
  jd6                  JUNCTION     0.10     0.16   275.16     0  03:00        0.16
  jd7                  JUNCTION     0.33     0.46   264.56     0  03:00        0.46
  jd8                  JUNCTION     2.07     3.00   267.00     0  02:30        3.00
  jd9                  JUNCTION     1.81     3.00   268.00     0  02:33        3.00
  jd10                 JUNCTION     2.77     3.00   273.00     0  02:24        3.00
  jd11                 JUNCTION     0.09     0.14   282.14     0  03:00        0.14
  jd12                 JUNCTION     2.78     3.00   272.00     0  02:23        3.00
  jd13                 JUNCTION     0.11     0.17   289.17     0  03:00        0.17
  jd14                 JUNCTION     0.24     0.41   280.41     0  03:00        0.41
  jd15                 JUNCTION     0.24     0.40   278.40     0  03:01        0.39
  jd16                 JUNCTION     0.27     0.44   274.44     0  03:00        0.44
  jd17                 JUNCTION     2.41     3.00   278.80     0  02:33        3.00
  jd18                 JUNCTION     0.26     0.52   279.52     0  03:01        0.51
  jd19                 JUNCTION     1.40     3.00   270.00     0  02:36        3.00
  jd20                 JUNCTION     0.19     0.27   273.27     0  03:00        0.27
  jd21                 JUNCTION     2.75     3.00   273.00     0  02:28        3.00
  jd22                 JUNCTION     1.90     3.00   275.00     0  02:30        3.00
  jd23                 JUNCTION     0.21     0.35   278.35     0  03:00        0.35
  jd24                 JUNCTION     0.13     0.20   285.20     0  03:00        0.20
  jd25                 JUNCTION     0.21     0.34   279.34     0  03:00        0.34
  jd26                 JUNCTION     0.24     0.42   285.42     0  03:00        0.42
  jd27                 JUNCTION     0.19     0.31   291.31     0  03:00        0.31
  jd28                 JUNCTION     2.79     3.00   290.00     0  02:21        3.00
  jd29                 JUNCTION     0.09     0.14   299.14     0  03:00        0.14
  jd30                 JUNCTION     0.12     0.19   290.19     0  03:01        0.19
  jd31                 JUNCTION     0.98     3.00   275.00     0  02:35        1.21
  jd32                 JUNCTION     2.77     3.00   275.00     0  02:24        3.00
  jd33                 JUNCTION     0.17     0.28   289.28     0  03:00        0.28
  jd34                 JUNCTION     0.19     0.33   294.33     0  03:00        0.33
  jd35                 JUNCTION     2.80     3.00   292.00     0  02:18        3.00
  jd36                 JUNCTION     0.32     3.00   302.00     0  03:01        0.58
  jd37                 JUNCTION     0.29     0.51   303.51     0  03:02        0.51
  jd38                 JUNCTION     0.34     0.60   297.60     0  03:01        0.59
  jd39                 JUNCTION     2.76     3.00   297.00     0  02:28        3.00
  jd40                 JUNCTION     1.31     3.00   302.00     0  02:47        3.00
  jd41                 JUNCTION     2.71     3.00   296.00     0  02:40        3.00
  jd42                 JUNCTION     0.18     0.27   305.27     0  03:00        0.27
  jd43                 JUNCTION     1.22     3.00   300.00     0  02:40        3.00
  jd44                 JUNCTION     1.22     3.00   286.00     0  02:45        3.00
  jd45                 JUNCTION     2.76     3.00   282.00     0  02:27        3.00
  jd46                 JUNCTION     0.25     0.38   275.38     0  03:02        0.37
  jd47                 JUNCTION     0.14     0.23   315.23     0  03:00        0.23
  jd48                 JUNCTION     0.10     0.16   325.16     0  03:00        0.16
  jd49                 JUNCTION     0.23     0.37   289.37     0  03:00        0.37
  jd50                 JUNCTION     2.79     3.00   278.00     0  02:21        3.00
  jd51                 JUNCTION     2.70     3.00   313.00     0  02:41        3.00
  jd52                 JUNCTION     0.37     0.70   323.70     0  03:02        0.68
  jd53                 JUNCTION     0.41     1.17   323.17     0  03:06        0.99
  jd54                 JUNCTION     0.26     0.42   326.42     0  03:00        0.42
  jd55                 JUNCTION     1.38     3.00   325.00     0  02:38        1.94
  jd56                 JUNCTION     0.17     0.29   327.29     0  03:00        0.29
  jd59                 JUNCTION     2.68     3.00   320.80     0  02:44        3.00
  jd60                 JUNCTION     2.78     3.00   319.00     0  02:22        3.00
  jd61                 JUNCTION     0.13     0.21   329.21     0  03:00        0.21
  jd62                 JUNCTION     0.06     0.09   335.09     0  03:00        0.09
  jd63                 JUNCTION     0.06     0.10   324.10     0  03:00        0.10
  jd64                 JUNCTION     2.51     3.00   321.00     0  02:42        2.84
  jd65                 JUNCTION     2.26     3.00   307.00     0  02:30        3.00
  jd66                 JUNCTION     2.77     3.00   304.00     0  02:25        3.00
  jd69                 JUNCTION     0.21     0.34   333.34     0  03:00        0.34
  jd79                 JUNCTION     2.70     3.00   274.00     0  02:22        3.00
  jd80                 JUNCTION     2.47     3.00   279.00     0  02:24        3.00
  jd81                 JUNCTION     0.13     0.21   288.21     0  03:00        0.21
  jd83                 JUNCTION     2.81     3.00   323.00     0  02:15        3.00
  jd84                 JUNCTION     0.21     0.38   323.38     0  03:00        0.38
  jd85                 JUNCTION     2.78     3.00   324.00     0  02:23        3.00
  jd87                 JUNCTION     2.78     3.00   322.00     0  02:23        3.00
  jd89                 JUNCTION     0.14     0.23   324.23     0  03:00        0.23
  jd90                 JUNCTION     0.12     0.20   328.20     0  03:00        0.20
  jd92                 JUNCTION     0.13     0.21   326.21     0  03:00        0.21
  jd93                 JUNCTION     0.39     0.73   324.73     0  03:02        0.72
  jd94                 JUNCTION     0.22     0.37   326.57     0  03:01        0.37
  jd95                 JUNCTION     0.30     0.51   327.51     0  03:00        0.51
  jd96                 JUNCTION     2.79     3.00   308.00     0  02:19        3.00
  jd97                 JUNCTION     0.30     0.52   327.72     0  03:00        0.52
  jd98                 JUNCTION     0.17     0.28   329.28     0  03:00        0.28
  jd99                 JUNCTION     2.77     3.00   327.00     0  02:25        3.00
  jd101                JUNCTION     0.10     0.16   321.16     0  03:00        0.16
  jd102                JUNCTION     0.21     0.35   324.35     0  03:00        0.35
  jd103                JUNCTION     0.10     0.16   318.16     0  03:00        0.16
  jd106                JUNCTION     2.73     3.00   287.00     0  02:34        3.00
  jd107                JUNCTION     0.19     0.31   332.31     0  03:00        0.31
  jd108                JUNCTION     1.12     1.89   327.89     0  02:22        1.34
  jd109                JUNCTION     0.15     0.24   343.24     0  03:00        0.24
  jd110                JUNCTION     2.78     3.00   327.00     0  02:22        3.00
  jd111                JUNCTION     0.07     0.11   344.11     0  03:00        0.11
  jd112                JUNCTION     0.08     0.14   334.14     0  03:00        0.14
  jd113                JUNCTION     0.09     0.15   348.15     0  03:00        0.15
  jd114                JUNCTION     2.77     3.00   317.00     0  02:26        3.00
  jd117                JUNCTION     1.11     3.00   319.00     0  02:29        1.68
  jd118                JUNCTION     0.08     0.14   330.14     0  03:00        0.14
  jd120                JUNCTION     0.14     0.23   327.23     0  03:00        0.23
  jd121                JUNCTION     0.15     0.24   320.24     0  03:00        0.24
  jd122                JUNCTION     2.76     3.00   276.00     0  02:27        3.00
  jd123                JUNCTION     2.75     3.00   276.20     0  02:29        3.00
  jd124                JUNCTION     2.81     3.00   271.00     0  02:14        3.00
  jd125                JUNCTION     1.58     3.00   278.00     0  02:38        3.00
  jd126                JUNCTION     2.80     3.00   275.00     0  02:17        3.00
  jd135                JUNCTION     0.12     0.20   289.20     0  03:00        0.20
  jd136                JUNCTION     0.23     0.39   341.39     0  03:00        0.39
  psk1                 OUTFALL      0.08     0.13   279.13     0  03:00        0.13
  psk2                 OUTFALL      0.12     0.19   270.19     0  03:01        0.19
  psk3                 OUTFALL      0.27     0.44   271.44     0  03:01        0.43
  psk4                 OUTFALL      0.00     0.00   280.00     0  00:00        0.00
  psk5                 OUTFALL      0.11     0.18   263.18     0  03:00        0.18
  psk6                 OUTFALL      0.08     0.12   259.12     0  03:00        0.12
  psk7                 OUTFALL      0.33     0.46   262.46     0  03:00        0.46
  psk8                 OUTFALL      0.00     0.00   317.00     0  00:00        0.00
  
  
  *******************
  Node Inflow Summary
  *******************
  
  -------------------------------------------------------------------------------------------------
                                  Maximum  Maximum                  Lateral       Total        Flow
                                  Lateral    Total  Time of Max      Inflow      Inflow     Balance
                                   Inflow   Inflow   Occurrence      Volume      Volume       Error
  Node                 Type           CMS      CMS  days hr:min    10^6 ltr    10^6 ltr     Percent
  -------------------------------------------------------------------------------------------------
  jd1                  JUNCTION     0.431    0.675     0  03:00        5.02        8.16       0.075
  jd2                  JUNCTION     0.620    0.854     0  03:00        7.71        10.6       0.164
  jd3                  JUNCTION     0.763    2.059     0  03:00        9.25        29.7       1.348
  jd4                  JUNCTION     0.898    1.010     0  03:00        11.1        12.4       0.222
  jd5                  JUNCTION     0.284    0.480     0  03:00        3.25        5.67       0.021
  jd6                  JUNCTION     0.322    0.322     0  03:00        3.75        3.75       0.041
  jd7                  JUNCTION     0.168    1.844     0  03:00        1.91        28.3       0.109
  jd8                  JUNCTION     0.233    1.179     0  03:00        2.65          20       0.670
  jd9                  JUNCTION     0.179    1.247     0  03:00        2.03        19.4       0.128
  jd10                 JUNCTION     0.469    0.594     0  03:00         5.4        6.87       1.473
  jd11                 JUNCTION     0.687    0.687     0  03:00        7.97        7.97       0.030
  jd12                 JUNCTION     0.510    1.109     0  03:00        5.99          13       1.053
  jd13                 JUNCTION     0.924    0.924     0  03:00        10.9        10.9       0.033
  jd14                 JUNCTION     1.055    1.192     0  03:00        12.7        14.3       0.128
  jd15                 JUNCTION     0.456    0.984     0  03:00        5.25        11.4       0.378
  jd16                 JUNCTION     0.493    1.843     0  03:00        5.65        21.7       0.138
  jd17                 JUNCTION     1.002    2.325     0  03:00        11.8        30.4       1.449
  jd18                 JUNCTION     0.809    1.173     0  03:00        9.35        13.6       0.192
  jd19                 JUNCTION     0.754    1.366     0  03:00        8.69        17.7       0.119
  jd20                 JUNCTION     0.616    0.849     0  03:00        7.21        12.4       0.218
  jd21                 JUNCTION     0.282    2.025     0  03:00        3.34        28.4       1.184
  jd22                 JUNCTION     0.498    1.067     0  03:00        5.88        13.2       0.613
  jd23                 JUNCTION     0.498    1.391     0  03:00        5.82        16.2       0.099
  jd24                 JUNCTION     0.824    0.824     0  03:00        9.58        9.58       0.040
  jd25                 JUNCTION     0.642    0.932     0  03:00        7.52        10.9       0.128
  jd26                 JUNCTION     0.934    1.548     0  03:00        10.9        18.3       0.114
  jd27                 JUNCTION     0.934    1.543     0  03:00        11.3          19       0.122
  jd28                 JUNCTION     1.231    1.721     0  03:00        15.3        21.7       0.610
  jd29                 JUNCTION     0.530    0.530     0  03:00        6.16        6.16      -0.008
  jd30                 JUNCTION     0.525    1.598     0  03:00         6.4        18.3       0.064
  jd31                 JUNCTION     0.355    1.271     0  02:34        4.28        9.34       5.034
  jd32                 JUNCTION     0.740    2.860     0  03:00        8.68        38.6       0.647
  jd33                 JUNCTION     0.739    1.243     0  03:00        8.59        14.3       0.052
  jd34                 JUNCTION     0.923    0.923     0  03:00        10.6        10.6       0.043
  jd35                 JUNCTION     0.837    2.601     0  02:59        9.68        33.7       0.388
  jd36                 JUNCTION     1.317    2.147     0  03:00        16.4        26.9       0.146
  jd37                 JUNCTION     1.417    1.417     0  03:00        17.3        17.3       0.105
  jd38                 JUNCTION     1.327    2.161     0  03:00        15.9        26.3       0.193
  jd39                 JUNCTION     0.936    3.294     0  03:00          11        47.5       1.075
  jd40                 JUNCTION     1.549    3.814     0  03:00        18.7        45.7       0.137
  jd41                 JUNCTION     1.100    4.022     0  03:00        13.1        54.2       4.056
  jd42                 JUNCTION     1.351    1.498     0  03:00        17.2        18.9       0.172
  jd43                 JUNCTION     1.684    2.994     0  03:00        19.5        34.3       0.255
  jd44                 JUNCTION     2.169    4.447     0  03:00        25.9        62.5       0.105
  jd45                 JUNCTION     0.799    3.024     0  03:00        10.5          43       0.755
  jd46                 JUNCTION     0.370    0.370     0  03:00        4.78        4.78       0.343
  jd47                 JUNCTION     1.321    1.321     0  03:00        15.5        15.5      -0.127
  jd48                 JUNCTION     0.379    0.379     0  03:00        4.35        4.35       0.004
  jd49                 JUNCTION     1.684    1.684     0  03:00          21          21       0.113
  jd50                 JUNCTION     1.814    4.118     0  03:00        21.9        62.6       0.690
  jd51                 JUNCTION     0.399    1.803     0  03:00        4.57        21.1       6.977
  jd52                 JUNCTION     0.768    3.175     0  03:00         9.3        36.4       0.195
  jd53                 JUNCTION     0.415    2.355     0  02:57        5.16        28.3       0.072
  jd54                 JUNCTION     0.242    1.198     0  03:00        2.78        13.9       0.133
  jd55                 JUNCTION     0.441    1.504     0  03:00        5.06        16.7       4.613
  jd56                 JUNCTION     0.270    0.790     0  03:00        3.08           9       0.075
  jd59                 JUNCTION     0.265    1.307     0  03:00        3.06        14.8       5.537
  jd60                 JUNCTION     0.472    1.005     0  03:00        5.47        11.7       1.098
  jd61                 JUNCTION     0.529    0.596     0  03:00        6.19        6.97       0.054
  jd62                 JUNCTION     0.219    0.219     0  03:00        2.51        2.51      -0.005
  jd63                 JUNCTION     0.296    0.296     0  03:00        3.39        3.39       0.001
  jd64                 JUNCTION     0.247    0.610     0  03:00        2.85        7.06       5.556
  jd65                 JUNCTION     3.770    3.770     0  03:00        48.7        48.7       0.085
  jd66                 JUNCTION     0.556    1.627     0  03:00         6.5        18.8       1.716
  jd69                 JUNCTION     1.045    1.074     0  03:00          12        12.3       0.055
  jd79                 JUNCTION     0.984    1.796     0  03:00        11.5          21       0.838
  jd80                 JUNCTION     1.088    1.360     0  03:00        12.8        16.8       0.407
  jd81                 JUNCTION     0.817    0.817     0  03:00        9.71        9.71       0.009
  jd83                 JUNCTION     0.895    1.108     0  03:00        10.2        13.4       0.624
  jd84                 JUNCTION     1.139    1.139     0  03:00          13          13       0.064
  jd85                 JUNCTION     0.259    0.424     0  03:00        2.94        4.83       1.769
  jd87                 JUNCTION     0.210    0.502     0  03:00         2.4        5.82       1.268
  jd89                 JUNCTION     0.240    0.240     0  03:00         2.8         2.8       0.047
  jd90                 JUNCTION     0.248    0.248     0  03:00        2.85        2.85       0.005
  jd92                 JUNCTION     0.209    0.209     0  03:00         2.4         2.4       0.008
  jd93                 JUNCTION     0.426    0.938     0  03:00        5.17        11.2       0.136
  jd94                 JUNCTION     0.029    0.518     0  03:00       0.328        6.01       0.195
  jd95                 JUNCTION     0.055    0.494     0  03:00       0.623        5.69       0.142
  jd96                 JUNCTION     0.416    0.552     0  03:00        4.77        6.33       1.522
  jd97                 JUNCTION     0.440    0.440     0  03:00        5.07        5.07       0.027
  jd98                 JUNCTION     0.247    0.247     0  03:00        2.82        2.82       0.047
  jd99                 JUNCTION     0.120    0.336     0  03:00        1.37        4.48       1.258
  jd101                JUNCTION     0.325    0.635     0  03:00         3.7        7.37      -0.068
  jd102                JUNCTION     0.313    0.313     0  03:00        3.67        3.67       0.111
  jd103                JUNCTION     0.221    0.221     0  03:00        2.54        2.54      -0.004
  jd106                JUNCTION     0.175    0.998     0  03:00        1.99        11.5       3.494
  jd107                JUNCTION     0.251    0.818     0  03:00        2.87        9.43       0.134
  jd108                JUNCTION     0.274    0.274     0  03:00        3.15        3.16       2.100
  jd109                JUNCTION     0.449    0.449     0  03:00        5.21        5.21       0.018
  jd110                JUNCTION     0.352    0.522     0  03:00        4.05        6.02       2.551
  jd111                JUNCTION     0.289    0.289     0  03:00        3.33        3.33      -0.008
  jd112                JUNCTION     0.333    0.939     0  03:00        3.85        10.8       0.037
  jd113                JUNCTION     0.231    0.231     0  03:00        2.65        2.65      -0.026
  jd114                JUNCTION     0.272    3.195     0  02:54        3.13        40.8       0.754
  jd117                JUNCTION     0.247    1.073     0  02:29        2.88        9.58       1.614
  jd118                JUNCTION     0.232    0.232     0  03:00        2.64        2.64      -0.016
  jd120                JUNCTION     0.285    0.285     0  03:00        3.29        3.29       0.014
  jd121                JUNCTION     0.348    0.348     0  03:00         4.1         4.1       0.033
  jd122                JUNCTION     0.829    3.153     0  03:00        9.66        41.9       1.345
  jd123                JUNCTION     0.858    2.832     0  03:00        9.95        42.7       1.609
  jd124                JUNCTION     1.194    2.267     0  03:00        14.3        35.4       0.158
  jd125                JUNCTION     1.121    2.796     0  03:00        13.9        43.3       0.063
  jd126                JUNCTION     1.606    2.245     0  03:00        20.2        28.3       0.355
  jd135                JUNCTION     0.449    0.449     0  03:00        5.15        5.15       0.013
  jd136                JUNCTION     0.376    0.607     0  03:00        4.33        6.98       0.139
  psk1                 OUTFALL      0.000    0.448     0  03:00           0        5.14       0.000
  psk2                 OUTFALL      0.000    1.175     0  03:01           0        13.5       0.000
  psk3                 OUTFALL      0.000    1.821     0  03:01           0        21.7       0.000
  psk4                 OUTFALL      0.000    0.000     0  00:00           0           0       0.000 ltr
  psk5                 OUTFALL      0.000    0.434     0  03:00           0         5.3       0.000
  psk6                 OUTFALL      0.000    0.367     0  03:00           0        4.35       0.000
  psk7                 OUTFALL      0.000    1.841     0  03:00           0        28.2       0.000
  psk8                 OUTFALL      0.000    0.000     0  00:00           0           0       0.000 ltr
  
  
  **********************
  Node Surcharge Summary
  **********************
  
  Surcharging occurs when water rises above the top of the highest conduit.
  ---------------------------------------------------------------------
                                               Max. Height   Min. Depth
                                   Hours       Above Crown    Below Rim
  Node                 Type      Surcharged         Meters       Meters
  ---------------------------------------------------------------------
  jd3                  JUNCTION        7.52          2.200        0.000
  jd4                  JUNCTION        3.82          2.200        0.000
  jd8                  JUNCTION        6.05          2.200        0.000
  jd9                  JUNCTION        4.80          2.200        0.000
  jd10                 JUNCTION        7.60          2.400        0.000
  jd12                 JUNCTION        7.61          2.400        0.000
  jd17                 JUNCTION        6.08          2.200        0.000
  jd19                 JUNCTION        3.06          2.200        0.000
  jd21                 JUNCTION        7.52          2.200        0.000
  jd22                 JUNCTION        7.49          2.400        0.000
  jd28                 JUNCTION        7.64          2.400        0.000
  jd31                 JUNCTION        7.41          2.200        0.000
  jd32                 JUNCTION        7.59          2.200        0.000
  jd35                 JUNCTION        7.70          2.400        0.000
  jd36                 JUNCTION        0.10          2.400        0.000
  jd39                 JUNCTION        7.52          2.000        0.000
  jd40                 JUNCTION        2.56          2.200        0.000
  jd41                 JUNCTION        7.33          1.000        0.000
  jd43                 JUNCTION        2.15          2.200        0.000
  jd44                 JUNCTION        2.37          2.000        0.000
  jd45                 JUNCTION        7.54          2.000        0.000
  jd50                 JUNCTION        7.65          2.200        0.000
  jd51                 JUNCTION        7.31          1.350        0.000
  jd55                 JUNCTION        2.81          1.500        0.000
  jd59                 JUNCTION        7.27          1.500        0.000
  jd60                 JUNCTION        7.63          2.400        0.000
  jd64                 JUNCTION        7.29          1.800        0.000
  jd65                 JUNCTION        5.39          2.400        0.000
  jd66                 JUNCTION        7.58          2.200        0.000
  jd79                 JUNCTION        7.63          2.400        0.000
  jd80                 JUNCTION        6.41          2.400        0.000
  jd83                 JUNCTION        7.74          2.400        0.000
  jd85                 JUNCTION        7.61          2.400        0.000
  jd87                 JUNCTION        7.61          2.400        0.000
  jd96                 JUNCTION        7.67          2.200        0.000
  jd99                 JUNCTION        7.58          2.400        0.000
  jd106                JUNCTION        7.44          2.000        0.000
  jd108                JUNCTION        7.63          0.893        1.107
  jd110                JUNCTION        7.62          2.000        0.000
  jd114                JUNCTION        7.56          2.000        0.000
  jd117                JUNCTION        7.52          2.200        0.000
  jd122                JUNCTION        7.54          2.200        0.000
  jd123                JUNCTION        7.51          2.200        0.000
  jd124                JUNCTION        7.77          2.400        0.000
  jd125                JUNCTION        3.81          2.200        0.000
  jd126                JUNCTION        7.71          2.400        0.000
  
  
  *********************
  Node Flooding Summary
  *********************
  
  Flooding refers to all water that overflows a node, whether it ponds or not.
  --------------------------------------------------------------------------
                                                             Total   Maximum
                                 Maximum   Time of Max       Flood    Ponded
                        Hours       Rate    Occurrence      Volume     Depth
  Node                 Flooded       CMS   days hr:min    10^6 ltr    Meters
  --------------------------------------------------------------------------
  jd3                     7.52     2.059      0  03:00      29.269     0.000
  jd4                     2.97     0.500      0  03:00       2.539     0.000
  jd8                     2.64     0.337      0  02:30       0.771     0.000
  jd9                     2.58     0.467      0  02:33       1.962     0.000
  jd10                    7.60     0.593      0  03:00       6.768     0.000
  jd12                    7.61     1.109      0  03:00      12.859     0.000
  jd17                    4.73     1.496      0  03:00      11.028     0.000
  jd19                    0.51     0.389      0  02:36       0.328     0.000
  jd21                    7.46     2.025      0  03:00      27.805     0.000
  jd22                    1.73     0.316      0  02:30       0.267     0.000
  jd28                    7.64     1.720      0  03:00      21.541     0.000
  jd31                    0.01     1.080      0  02:35       0.011     0.000
  jd32                    7.59     2.860      0  03:00      38.362     0.000
  jd35                    7.70     2.601      0  02:59      33.592     0.000
  jd36                    0.01     0.224      0  03:01       0.002     0.000
  jd39                    7.52     3.294      0  03:00      47.024     0.000
  jd40                    2.18     1.251      0  03:00       3.477     0.000
  jd41                    7.33     4.021      0  03:00      52.092     0.000
  jd43                    2.04     1.163      0  03:00       3.245     0.000
  jd44                    0.36     1.039      0  02:45       0.470     0.000
  jd45                    7.54     3.024      0  03:00      42.714     0.000
  jd50                    7.65     4.118      0  03:00      62.163     0.000
  jd51                    7.31     1.803      0  03:00      19.695     0.000
  jd55                    0.01     0.975      0  02:38       0.017     0.000
  jd59                    7.27     1.307      0  03:00      13.994     0.000
  jd60                    7.63     1.005      0  03:00      11.555     0.000
  jd64                    0.02     0.396      0  02:44       0.013     0.000
  jd65                    5.21     2.676      0  03:00      23.266     0.000
  jd66                    7.58     1.627      0  03:00      18.524     0.000
  jd79                    6.05     1.563      0  03:00      15.666     0.000
  jd80                    5.80     1.202      0  03:00      12.246     0.000
  jd83                    7.74     1.108      0  03:00      13.360     0.000
  jd85                    7.61     0.424      0  03:00       4.750     0.000
  jd87                    7.61     0.502      0  03:00       5.749     0.000
  jd96                    7.67     0.552      0  03:00       6.234     0.000
  jd99                    7.58     0.336      0  03:00       4.424     0.000
  jd106                   7.43     0.998      0  03:00      11.119     0.000
  jd110                   7.62     0.522      0  03:00       5.873     0.000
  jd114                   7.56     3.195      0  02:54      40.482     0.000
  jd117                   0.01     0.994      0  02:29       0.019     0.000
  jd122                   7.54     3.152      0  03:00      41.167     0.000
  jd123                   6.70     2.517      0  03:00      33.729     0.000
  jd124                   7.77     2.267      0  03:00      35.297     0.000
  jd125                   2.02     0.714      0  02:38       1.220     0.000
  jd126                   7.71     2.245      0  03:00      28.213     0.000
  
  
  ***********************
  Outfall Loading Summary
  ***********************
  
  -----------------------------------------------------------
                         Flow       Avg       Max       Total
                         Freq      Flow      Flow      Volume
  Outfall Node           Pcnt       CMS       CMS    10^6 ltr
  -----------------------------------------------------------
  psk1                  95.81     0.209     0.448       5.143
  psk2                  94.98     0.552     1.175      13.460
  psk3                  96.15     0.877     1.821      21.667
  psk4                   0.00     0.000     0.000       0.000
  psk5                  94.91     0.216     0.434       5.297
  psk6                  95.07     0.178     0.367       4.349
  psk7                  94.71     1.137     1.841      28.232
  psk8                   0.00     0.000     0.000       0.000
  -----------------------------------------------------------
  System                71.45     3.170     0.000      78.149
  
  
  ********************
  Link Flow Summary
  ********************
  
  -----------------------------------------------------------------------------
                                 Maximum  Time of Max   Maximum    Max/    Max/
                                  |Flow|   Occurrence   |Veloc|    Full    Full
  Link                 Type          CMS  days hr:min     m/sec    Flow   Depth
  -----------------------------------------------------------------------------
  GQ1                  CONDUIT     0.246     0  03:02      1.87    0.65    0.48
  GQ2                  CONDUIT     0.699     0  03:01      2.27    0.33    0.42
  GQ3                  CONDUIT     0.448     0  03:00      5.63    0.02    0.09
  GQ4                  CONDUIT     0.510     0  02:59      1.80    1.00    1.00
  GQ5                  CONDUIT     0.799     0  03:02      1.72    0.66    0.87
  GQ6                  CONDUIT     0.235     0  03:00      1.19    0.11    0.48
  GQ7                  CONDUIT     1.675     0  03:00      3.65    1.00    1.00
  GQ8                  CONDUIT     0.447     0  03:00      1.14    0.43    0.73
  GQ9                  CONDUIT     1.214     0  03:00      3.10    0.43    0.73
  GQ10                 CONDUIT     1.136     0  07:12      4.10    1.04    1.00
  GQ11                 CONDUIT     0.147     0  03:00      1.88    0.16    0.36
  GQ12                 CONDUIT     0.165     0  03:00      0.86    0.18    0.64
  GQ13                 CONDUIT     0.112     0  03:00      0.53    0.05    0.58
  GQ14                 CONDUIT     0.055     0  03:00      0.92    0.08    0.18
  GQ15                 CONDUIT     0.142     0  03:00      4.06    0.57    0.50
  GQ16                 CONDUIT     1.087     0  03:01      3.81    0.53    0.39
  GQ17                 CONDUIT     0.266     0  03:00      1.53    0.08    0.39
  GQ18                 CONDUIT     1.054     0  03:00      2.50    4.75    0.79
  GQ19                 CONDUIT     0.356     0  03:00      1.89    0.04    0.30
  GQ20                 CONDUIT     0.078     0  03:00      0.45    0.04    0.33
  GQ21                 CONDUIT     0.286     0  03:00      1.37    0.09    0.36
  GQ22                 CONDUIT     0.290     0  03:00      1.67    0.09    0.27
  GQ23                 CONDUIT     0.517     0  03:00      2.13    0.25    0.35
  GQ24                 CONDUIT     0.809     0  03:00      2.09    0.40    0.72
  GQ25                 CONDUIT     0.504     0  03:00      3.49    0.57    0.51
  GQ26                 CONDUIT     0.377     0  03:00      2.50    0.44    0.53
  GQ27                 CONDUIT     0.571     0  03:00      2.37    0.57    0.79
  GQ28                 CONDUIT     0.231     0  03:00      0.65    0.25    0.67
  GQ29                 CONDUIT     0.960     0  02:34      2.21    0.45    1.00
  GQ30                 CONDUIT     0.824     0  02:56      2.91    1.00    1.00
  GQ31                 CONDUIT     0.416     0  03:00      1.76    0.56    0.78
  GQ32                 CONDUIT     0.623     0  03:01      2.94    1.00    0.76
  GQ33                 CONDUIT     1.391     0  03:01      4.92    0.97    1.00
  GQ34                 CONDUIT     0.274     0  03:00      1.37    0.43    0.73
  GQ35                 CONDUIT     0.559     0  03:00      2.14    1.04    0.93
  GQ36                 CONDUIT     0.837     0  03:02      3.06    1.04    0.93
  GQ37                 CONDUIT     0.342     0  03:00      1.48    0.49    0.76
  GQ38                 CONDUIT     0.150     0  03:01      0.76    0.21    0.66
  GQ39                 CONDUIT     0.612     0  03:01      2.39    0.78    0.85
  GQ40                 CONDUIT     0.436     0  03:00      2.42    0.54    0.61
  GQ41                 CONDUIT     1.005     0  03:02      1.49    0.47    0.80
  GQ42                 CONDUIT     1.359     0  03:00      2.70    1.00    1.00
  GQ43                 CONDUIT     2.293     0  03:03      4.68    1.03    0.94
  GQ44                 CONDUIT     0.946     0  04:39      1.88    1.00    1.00
  GQ45                 CONDUIT     0.612     0  03:00      1.81    0.25    0.67
  GQ46                 CONDUIT     1.068     0  02:56      2.13    1.00    1.00
  GQ47                 CONDUIT     0.125     0  03:00      0.68    0.12    0.62
  GQ48                 CONDUIT     0.124     0  03:00      0.68    0.12    0.62
  GQ49                 CONDUIT     0.476     0  03:00      2.47    0.18    0.64
  GQ50                 CONDUIT     0.137     0  03:00      1.03    0.18    0.49
  GQ51                 CONDUIT     0.531     0  03:00      2.62    0.81    0.67
  GQ52                 CONDUIT     0.342     0  03:02      0.87    0.46    0.74
  GQ53                 CONDUIT     2.225     0  03:04      2.83    1.00    1.00
  GQ54                 CONDUIT     0.302     0  03:00      1.49    0.26    0.67
  GQ55                 CONDUIT     0.232     0  03:00      1.23    0.16    0.63
  GQ56                 CONDUIT     2.009     0  02:42      4.25    1.10    1.00
  GQ57                 CONDUIT     0.389     0  03:00      1.08    0.25    0.67
  GQ58                 CONDUIT     0.810     0  03:00      2.26    0.25    0.67
  GQ59                 CONDUIT     1.203     0  05:01      2.39    1.00    1.00
  GQ60                 CONDUIT     1.504     0  03:00      1.11    0.36    0.73
  GQ61                 CONDUIT     0.194     0  03:00      0.56    0.02    0.55
  GQ62                 CONDUIT     0.399     0  03:00      0.68    0.04    0.57
  GQ63                 CONDUIT     0.912     0  03:00      1.39    0.03    0.56
  GQ64                 CONDUIT     0.068     0  03:00      1.33    0.05    0.25
  GQ65                 CONDUIT     0.029     0  03:00      0.33    0.05    0.36
  GQ66                 CONDUIT     0.117     0  03:00      0.76    0.03    0.56
  GQ67                 CONDUIT     0.610     0  03:00      0.55    0.42    1.00
  GQ68                 CONDUIT     0.570     0  03:00      1.07    0.18    0.64
  GQ69                 CONDUIT     1.071     0  03:00      2.79    0.38    0.71
  GQ70                 CONDUIT     0.367     0  03:00      7.32    0.05    0.16
  GQ71                 CONDUIT     0.434     0  03:00      5.31    0.11    0.22
  GQ72                 CONDUIT     1.841     0  03:00      5.16    0.44    0.46
  GQ73                 CONDUIT     1.175     0  03:01     11.57    0.08    0.19
  GQ74                 CONDUIT     0.235     0  03:00      1.29    0.04    0.29
  GQ75                 CONDUIT     0.265     0  03:01      0.54    0.08    0.59
  GQ76                 CONDUIT     1.821     0  03:01      5.53    0.39    0.44
  GQ77                 CONDUIT     0.000     0  00:00      0.00    0.00    0.20
  GQ78                 CONDUIT     0.817     0  03:02      2.97    0.89    0.93
  GQ79                 CONDUIT     0.233     0  03:00      1.08    0.50    0.73
  GQ80                 CONDUIT     0.274     0  03:02      1.00    0.45    0.93
  GQ81                 CONDUIT     0.605     0  02:30      2.21    3.83    1.00
  GQ82                 CONDUIT     0.392     0  03:00      1.92    0.27    0.68
  GQ83                 CONDUIT     0.423     0  03:00      2.71    0.27    0.54
  GQ84                 CONDUIT     0.923     0  03:00      3.73    0.73    0.82
  GQ85                 CONDUIT     0.213     0  03:00      0.86    0.37    0.82
  GQ86                 CONDUIT     0.122     0  03:00      0.72    0.05    0.58
  GQ87                 CONDUIT     0.043     0  03:00      0.25    0.06    0.59
  GQ88                 CONDUIT     0.292     0  03:00      1.44    0.26    0.67
  GQ89                 CONDUIT     0.238     0  03:00      1.14    0.31    0.69
  GQ90                 CONDUIT     0.247     0  03:00      1.23    0.25    0.67
  GQ91                 CONDUIT     0.209     0  03:00      1.03    0.26    0.67
  GQ92                 CONDUIT     0.490     0  03:01      1.73    0.71    0.55
  GQ93                 CONDUIT     0.514     0  03:02      1.44    0.44    0.69
  GQ94                 CONDUIT     0.908     0  03:01      2.28    1.08    0.90
  GQ95                 CONDUIT     0.136     0  03:00      0.46    0.03    0.56
  GQ96                 CONDUIT     0.439     0  03:00      1.29    0.75    0.64
  GQ97                 CONDUIT     0.246     0  03:00      1.87    0.44    0.47
  GQ98                 CONDUIT     0.216     0  03:00      0.96    0.31    0.74
  GQ99                 CONDUIT     0.439     0  03:00      0.92    0.02    0.55
  GQ100                CONDUIT     0.311     0  03:00      2.74    0.53    0.42
  GQ101                CONDUIT     0.220     0  03:00      1.29    0.16    0.64
  GQ102                CONDUIT     0.860     0  03:00      2.39    0.26    0.67
  GQ103                CONDUIT     0.405     0  03:00      1.70    0.62    0.79
  GQ104                CONDUIT     0.746     0  03:00      3.22    0.54    0.76
  GQ105                CONDUIT     1.024     0  02:29      2.04    3.25    1.00
  GQ106                CONDUIT     0.243     0  03:00      1.21    0.24    0.67
  GQ107                CONDUIT     0.906     0  03:01      3.54    0.81    0.85
  GQ108                CONDUIT     0.829     0  03:06      1.65    1.00    1.00
  GQ109                CONDUIT     0.180     0  03:00      1.33    0.24    0.52
  GQ110                CONDUIT     0.292     0  03:00      1.00    0.04    0.57
  GQ111                CONDUIT     0.268     0  03:00      1.33    0.24    0.67
  GQ112                CONDUIT     0.813     0  03:00      2.82    0.14    0.30
  GQ113                CONDUIT     0.448     0  03:00      3.55    0.34    0.46
  GQ114                CONDUIT     0.274     0  03:00      0.51    0.11    0.64
  GQ115                CONDUIT     0.118     0  03:00      0.98    0.02    0.17
  GQ116                CONDUIT     0.171     0  03:00      0.38    0.02    0.55
  GQ117                CONDUIT     0.606     0  03:00      4.19    0.38    0.33
  GQ118                CONDUIT     0.231     0  03:00      1.90    0.08    0.34
  GQ119                CONDUIT     2.118     0  02:54      4.30    0.92    1.00
  GQ120                CONDUIT     0.000     0  00:00      0.00    0.00    0.50
  GQ121                CONDUIT     0.824     0  03:00      1.64    0.58    1.00
  GQ122                CONDUIT     0.345     0  03:00      2.00    0.06    0.59
  GQ123                CONDUIT     0.232     0  03:00      1.72    0.11    0.61
  GQ124                CONDUIT     0.144     0  03:00      1.01    0.06    0.35
  GQ125                CONDUIT     0.284     0  03:00      1.36    0.32    0.69
  GQ126                CONDUIT     0.346     0  03:00      1.64    0.33    0.70
  GQ127                CONDUIT     0.780     0  02:56      1.68    1.00    0.94
  GQ128                CONDUIT     1.189     0  03:00      2.79    0.26    0.65
  GQ129                CONDUIT     1.313     0  03:06      2.61    1.00    1.00
  GQ130                CONDUIT     1.073     0  02:53      3.79    1.00    1.00
  GQ131                CONDUIT     0.641     0  03:00      2.52    0.74    0.84
  
  
  ***************************
  Flow Classification Summary
  ***************************
  
  -------------------------------------------------------------------------------------
                      Adjusted    ---------- Fraction of Time in Flow Class ---------- 
                       /Actual         Up    Down  Sub   Sup   Up    Down  Norm  Inlet 
  Conduit               Length    Dry  Dry   Dry   Crit  Crit  Crit  Crit  Ltd   Ctrl  
  -------------------------------------------------------------------------------------
  GQ1                     1.00   0.03  0.00  0.00  0.04  0.93  0.00  0.00  0.00  0.00
  GQ2                     1.00   0.03  0.00  0.00  0.05  0.92  0.00  0.00  0.89  0.00
  GQ3                     1.00   0.04  0.00  0.00  0.01  0.94  0.00  0.00  0.24  0.00
  GQ4                     1.00   0.03  0.00  0.00  0.97  0.01  0.00  0.00  0.28  0.00
  GQ5                     1.00   0.03  0.00  0.00  0.97  0.00  0.00  0.00  0.69  0.00
  GQ6                     1.00   0.03  0.00  0.00  0.96  0.01  0.00  0.00  0.90  0.00
  GQ7                     1.00   0.03  0.00  0.00  0.49  0.48  0.00  0.00  0.17  0.00
  GQ8                     1.00   0.03  0.00  0.00  0.97  0.00  0.00  0.00  0.89  0.00
  GQ9                     1.00   0.03  0.00  0.00  0.59  0.38  0.00  0.00  0.90  0.00
  GQ10                    1.00   0.03  0.00  0.00  0.87  0.10  0.00  0.00  0.33  0.00
  GQ11                    1.00   0.03  0.00  0.00  0.26  0.71  0.00  0.00  0.86  0.00
  GQ12                    1.00   0.03  0.00  0.00  0.96  0.01  0.00  0.00  0.90  0.00
  GQ13                    1.00   0.03  0.01  0.00  0.97  0.00  0.00  0.00  0.90  0.00
  GQ14                    1.00   0.03  0.00  0.00  0.97  0.00  0.00  0.00  0.05  0.00
  GQ15                    1.00   0.03  0.00  0.00  0.03  0.94  0.00  0.00  0.01  0.00
  GQ16                    1.00   0.03  0.00  0.00  0.03  0.94  0.00  0.00  0.00  0.00
  GQ17                    1.00   0.03  0.00  0.00  0.93  0.04  0.00  0.00  0.89  0.00
  GQ18                    1.00   0.03  0.00  0.00  0.62  0.35  0.00  0.00  0.12  0.00
  GQ19                    1.00   0.03  0.00  0.00  0.56  0.41  0.00  0.00  0.89  0.00
  GQ20                    1.00   0.03  0.00  0.00  0.97  0.00  0.00  0.00  0.90  0.00
  GQ21                    1.00   0.03  0.00  0.00  0.68  0.30  0.00  0.00  0.90  0.00
  GQ22                    1.00   0.03  0.00  0.00  0.05  0.92  0.00  0.00  0.90  0.00
  GQ23                    1.00   0.03  0.00  0.00  0.03  0.94  0.00  0.00  0.25  0.00
  GQ24                    1.00   0.03  0.00  0.00  0.97  0.00  0.00  0.00  0.90  0.00
  GQ25                    1.00   0.03  0.00  0.00  0.01  0.96  0.00  0.00  0.01  0.00
  GQ26                    1.00   0.03  0.00  0.00  0.03  0.94  0.00  0.00  0.85  0.00
  GQ27                    1.00   0.03  0.00  0.00  0.87  0.10  0.00  0.00  0.69  0.00
  GQ28                    1.00   0.03  0.00  0.00  0.97  0.00  0.00  0.00  0.90  0.00
  GQ29                    1.00   0.03  0.00  0.00  0.97  0.00  0.00  0.00  0.14  0.00
  GQ30                    1.00   0.03  0.00  0.00  0.95  0.02  0.00  0.00  0.12  0.00
  GQ31                    1.00   0.03  0.00  0.00  0.97  0.00  0.00  0.00  0.87  0.00
  GQ32                    1.00   0.03  0.00  0.00  0.03  0.94  0.00  0.00  0.01  0.00
  GQ33                    1.00   0.03  0.00  0.00  0.21  0.76  0.00  0.00  0.64  0.00
  GQ34                    1.00   0.03  0.00  0.00  0.95  0.02  0.00  0.00  0.90  0.00
  GQ35                    1.00   0.03  0.00  0.00  0.09  0.88  0.00  0.00  0.65  0.00
  GQ36                    1.00   0.03  0.00  0.00  0.03  0.94  0.00  0.00  0.82  0.00
  GQ37                    1.00   0.03  0.00  0.00  0.97  0.00  0.00  0.00  0.86  0.00
  GQ38                    1.00   0.03  0.01  0.00  0.97  0.00  0.00  0.00  0.90  0.00
  GQ39                    1.00   0.03  0.00  0.00  0.95  0.02  0.00  0.00  0.86  0.00
  GQ40                    1.00   0.03  0.00  0.00  0.03  0.94  0.00  0.00  0.90  0.00
  GQ41                    1.00   0.03  0.00  0.00  0.97  0.00  0.00  0.00  0.64  0.00
  GQ42                    1.00   0.03  0.00  0.00  0.97  0.00  0.00  0.00  0.51  0.00
  GQ43                    1.00   0.03  0.00  0.00  0.03  0.94  0.00  0.00  0.87  0.00
  GQ44                    1.00   0.03  0.00  0.00  0.97  0.00  0.00  0.00  0.29  0.00
  GQ45                    1.00   0.03  0.00  0.00  0.61  0.36  0.00  0.00  0.90  0.00
  GQ46                    1.00   0.03  0.00  0.00  0.83  0.14  0.00  0.00  0.42  0.00
  GQ47                    1.00   0.03  0.00  0.00  0.97  0.00  0.00  0.00  0.90  0.00
  GQ48                    1.00   0.03  0.00  0.00  0.97  0.00  0.00  0.00  0.90  0.00
  GQ49                    1.00   0.03  0.00  0.00  0.62  0.35  0.00  0.00  0.90  0.00
  GQ50                    1.00   0.03  0.00  0.00  0.97  0.00  0.00  0.00  0.90  0.00
  GQ51                    1.00   0.03  0.00  0.00  0.03  0.94  0.00  0.00  0.67  0.00
  GQ52                    1.00   0.03  0.00  0.00  0.97  0.00  0.00  0.00  0.78  0.00
  GQ53                    1.00   0.03  0.00  0.00  0.97  0.00  0.00  0.00  0.54  0.00
  GQ54                    1.00   0.03  0.00  0.00  0.97  0.00  0.00  0.00  0.90  0.00
  GQ55                    1.00   0.03  0.00  0.00  0.97  0.00  0.00  0.00  0.90  0.00
  GQ56                    1.00   0.03  0.00  0.00  0.36  0.61  0.00  0.00  0.50  0.00
  GQ57                    1.00   0.03  0.00  0.00  0.97  0.00  0.00  0.00  0.90  0.00
  GQ58                    1.00   0.03  0.00  0.00  0.94  0.03  0.00  0.00  0.90  0.00
  GQ59                    1.00   0.03  0.00  0.00  0.97  0.00  0.00  0.00  0.53  0.00
  GQ60                    1.00   0.03  0.00  0.00  0.97  0.00  0.00  0.00  0.16  0.00
  GQ61                    1.00   0.03  0.00  0.00  0.97  0.00  0.00  0.00  0.90  0.00
  GQ62                    1.00   0.03  0.00  0.00  0.97  0.00  0.00  0.00  0.90  0.00
  GQ63                    1.00   0.03  0.00  0.00  0.96  0.01  0.00  0.00  0.90  0.00
  GQ64                    1.00   0.03  0.00  0.00  0.23  0.74  0.00  0.00  0.90  0.00
  GQ65                    1.00   0.03  0.00  0.00  0.97  0.00  0.00  0.00  0.90  0.00
  GQ66                    1.00   0.03  0.00  0.00  0.96  0.01  0.00  0.00  0.90  0.00
  GQ67                    1.00   0.03  0.00  0.00  0.97  0.00  0.00  0.00  0.12  0.00
  GQ68                    1.00   0.03  0.00  0.00  0.97  0.00  0.00  0.00  0.90  0.00
  GQ69                    1.00   0.03  0.00  0.00  0.87  0.10  0.00  0.00  0.90  0.00
  GQ70                    1.00   0.03  0.00  0.00  0.02  0.94  0.00  0.00  0.00  0.00
  GQ71                    1.00   0.03  0.00  0.00  0.02  0.94  0.00  0.00  0.15  0.00
  GQ72                    1.00   0.03  0.00  0.00  0.01  0.97  0.00  0.00  0.29  0.00
  GQ73                    1.00   0.03  0.00  0.00  0.02  0.94  0.00  0.00  0.00  0.00
  GQ74                    1.00   0.03  0.00  0.00  0.92  0.06  0.00  0.00  0.89  0.00
  GQ75                    1.00   0.03  0.01  0.00  0.97  0.00  0.00  0.00  0.90  0.00
  GQ76                    1.00   0.03  0.00  0.00  0.00  0.97  0.00  0.00  0.23  0.00
  GQ77                    1.00   0.03  0.97  0.00  0.00  0.00  0.00  0.00  0.00  0.00
  GQ78                    1.00   0.03  0.00  0.00  0.57  0.40  0.00  0.00  0.64  0.00
  GQ79                    1.00   0.03  0.00  0.00  0.97  0.00  0.00  0.00  0.13  0.00
  GQ80                    1.00   0.03  0.00  0.00  0.97  0.00  0.00  0.00  0.39  0.00
  GQ81                    1.00   0.03  0.00  0.00  0.97  0.00  0.00  0.00  0.00  0.00
  GQ82                    1.00   0.03  0.00  0.00  0.93  0.04  0.00  0.00  0.89  0.00
  GQ83                    1.00   0.03  0.00  0.00  0.02  0.95  0.00  0.00  0.89  0.00
  GQ84                    1.00   0.03  0.00  0.00  0.17  0.80  0.00  0.00  0.89  0.00
  GQ85                    1.00   0.03  0.00  0.00  0.97  0.00  0.00  0.00  0.44  0.00
  GQ86                    1.00   0.03  0.00  0.00  0.97  0.00  0.00  0.00  0.90  0.00
  GQ87                    1.00   0.03  0.00  0.00  0.97  0.00  0.00  0.00  0.90  0.00
  GQ88                    1.00   0.03  0.00  0.00  0.97  0.00  0.00  0.00  0.90  0.00
  GQ89                    1.00   0.03  0.00  0.00  0.96  0.01  0.00  0.00  0.90  0.00
  GQ90                    1.00   0.03  0.00  0.00  0.94  0.03  0.00  0.00  0.90  0.00
  GQ91                    1.00   0.03  0.00  0.00  0.96  0.01  0.00  0.00  0.90  0.00
  GQ92                    1.00   0.03  0.00  0.00  0.85  0.12  0.00  0.00  0.00  0.00
  GQ93                    1.00   0.03  0.00  0.00  0.97  0.00  0.00  0.00  0.89  0.00
  GQ94                    1.00   0.03  0.00  0.00  0.60  0.37  0.00  0.00  0.04  0.00
  GQ95                    1.00   0.03  0.00  0.00  0.97  0.00  0.00  0.00  0.90  0.00
  GQ96                    1.00   0.03  0.00  0.00  0.97  0.00  0.00  0.00  0.42  0.00
  GQ97                    1.00   0.03  0.00  0.00  0.03  0.94  0.00  0.00  0.38  0.00
  GQ98                    1.00   0.03  0.00  0.00  0.97  0.00  0.00  0.00  0.61  0.00
  GQ99                    1.00   0.03  0.00  0.00  0.96  0.01  0.00  0.00  0.90  0.00
  GQ100                   1.00   0.03  0.00  0.00  0.03  0.94  0.00  0.00  0.01  0.00
  GQ101                   1.00   0.03  0.00  0.00  0.96  0.01  0.00  0.00  0.90  0.00
  GQ102                   1.00   0.03  0.00  0.00  0.91  0.07  0.00  0.00  0.90  0.00
  GQ103                   1.00   0.03  0.00  0.00  0.97  0.00  0.00  0.00  0.90  0.00
  GQ104                   1.00   0.03  0.00  0.00  0.52  0.45  0.00  0.00  0.90  0.00
  GQ105                   1.00   0.03  0.00  0.00  0.97  0.00  0.00  0.00  0.13  0.00
  GQ106                   1.00   0.03  0.00  0.00  0.96  0.01  0.00  0.00  0.90  0.00
  GQ107                   1.00   0.03  0.00  0.00  0.48  0.49  0.00  0.00  0.87  0.00
  GQ108                   1.00   0.03  0.00  0.00  0.97  0.00  0.00  0.00  0.15  0.00
  GQ109                   1.00   0.03  0.00  0.00  0.92  0.05  0.00  0.00  0.89  0.00
  GQ110                   1.00   0.03  0.00  0.00  0.96  0.01  0.00  0.00  0.90  0.00
  GQ111                   1.00   0.03  0.00  0.00  0.96  0.01  0.00  0.00  0.90  0.00
  GQ112                   1.00   0.03  0.00  0.00  0.03  0.94  0.00  0.00  0.88  0.00
  GQ113                   1.00   0.03  0.00  0.00  0.00  0.97  0.00  0.00  0.88  0.00
  GQ114                   1.00   0.03  0.00  0.00  0.97  0.00  0.00  0.00  0.13  0.00
  GQ115                   1.00   0.03  0.00  0.00  0.95  0.02  0.00  0.00  0.90  0.00
  GQ116                   1.00   0.03  0.00  0.00  0.97  0.00  0.00  0.00  0.90  0.00
  GQ117                   1.00   0.03  0.00  0.00  0.00  0.97  0.00  0.00  0.01  0.00
  GQ118                   1.00   0.03  0.00  0.00  0.30  0.67  0.00  0.00  0.89  0.00
  GQ119                   1.00   0.03  0.00  0.00  0.42  0.55  0.00  0.00  0.62  0.00
  GQ120                   1.00   0.03  0.05  0.00  0.92  0.00  0.00  0.00  0.00  0.00
  GQ121                   1.00   0.03  0.00  0.00  0.96  0.01  0.00  0.00  0.13  0.00
  GQ122                   1.00   0.03  0.01  0.00  0.93  0.03  0.00  0.00  0.89  0.00
  GQ123                   1.00   0.03  0.00  0.00  0.94  0.03  0.00  0.00  0.89  0.00
  GQ124                   1.00   0.03  0.01  0.00  0.95  0.01  0.00  0.00  0.90  0.00
  GQ125                   1.00   0.03  0.00  0.00  0.96  0.01  0.00  0.00  0.89  0.00
  GQ126                   1.00   0.03  0.00  0.00  0.96  0.01  0.00  0.00  0.90  0.00
  GQ127                   1.00   0.03  0.00  0.00  0.97  0.00  0.00  0.00  0.58  0.00
  GQ128                   1.00   0.03  0.00  0.00  0.10  0.87  0.00  0.00  0.85  0.00
  GQ129                   1.00   0.03  0.00  0.00  0.97  0.00  0.00  0.00  0.32  0.00
  GQ130                   1.00   0.03  0.00  0.00  0.75  0.22  0.00  0.00  0.31  0.00
  GQ131                   1.00   0.03  0.00  0.00  0.84  0.14  0.00  0.00  0.71  0.00
  
  
  *************************
  Conduit Surcharge Summary
  *************************
  
  ----------------------------------------------------------------------------
                                                           Hours        Hours 
                         --------- Hours Full --------   Above Full   Capacity
  Conduit                Both Ends  Upstream  Dnstream   Normal Flow   Limited
  ----------------------------------------------------------------------------
  GQ4                         4.61      4.61      7.55      0.01         0.01
  GQ5                         0.01      0.01      7.52      0.01         0.01
  GQ7                         2.77      2.77      3.81      0.01         0.01
  GQ8                         0.01      0.01      2.77      0.01         0.01
  GQ9                         0.01      0.01      7.65      0.01         0.01
  GQ10                        5.39      5.39      7.68      0.21         0.01
  GQ12                        0.01      0.01      6.63      0.01         0.01
  GQ13                        0.01      0.01      3.82      0.01         0.01
  GQ18                        0.01      0.01      6.05      6.31         0.01
  GQ24                        0.01      0.01      7.59      0.01         0.01
  GQ27                        0.01      0.01      7.49      0.01         0.01
  GQ28                        0.01      0.01      7.52      0.01         0.01
  GQ29                        7.41      7.41      7.52      0.01         0.01
  GQ30                        7.49      7.49      7.56      0.01         0.01
  GQ31                        0.01      0.01      7.70      0.01         0.01
  GQ32                        0.01      0.10      0.01      0.01         0.01
  GQ33                        0.10      0.10      7.70      0.01         0.01
  GQ34                        0.01      0.01      0.10      0.01         0.01
  GQ35                        0.01      0.01      0.10      0.08         0.01
  GQ36                        0.01      0.01      0.01      0.13         0.01
  GQ37                        0.01      0.01      7.64      0.01         0.01
  GQ38                        0.01      0.01      7.64      0.01         0.01
  GQ39                        0.01      0.01      6.63      0.01         0.01
  GQ41                        0.01      0.01      7.52      0.01         0.01
  GQ42                        2.56      2.56      7.55      0.01         0.01
  GQ43                        0.01      0.01      2.56      0.14         0.01
  GQ44                        4.79      4.79      6.05      0.01         0.01
  GQ45                        0.01      0.01      3.06      0.01         0.01
  GQ46                        3.06      3.06      4.80      0.01         0.01
  GQ47                        0.01      0.01      7.60      0.01         0.01
  GQ48                        0.01      0.01      7.61      0.01         0.01
  GQ49                        0.01      0.01      7.61      0.01         0.01
  GQ52                        0.01      0.01      7.41      0.01         0.01
  GQ53                        2.37      2.37      7.54      0.01         0.01
  GQ54                        0.01      0.01      7.63      0.01         0.01
  GQ55                        0.01      0.01      7.63      0.01         0.01
  GQ56                        2.11      2.15      2.77      2.09         1.67
  GQ57                        0.01      0.01      2.15      0.01         0.01
  GQ58                        0.01      0.01      7.49      0.01         0.01
  GQ59                        2.56      2.56      7.49      0.01         0.01
  GQ60                        0.01      0.01      2.81      0.01         0.01
  GQ61                        0.01      0.01      7.27      0.01         0.01
  GQ62                        0.01      0.01      7.31      0.01         0.01
  GQ63                        0.01      0.01      7.33      0.01         0.01
  GQ66                        0.01      0.01      7.37      0.01         0.01
  GQ67                        7.29      7.29      7.32      0.01         0.01
  GQ68                        0.01      0.01      7.43      0.01         0.01
  GQ69                        0.01      0.01      7.58      0.01         0.01
  GQ75                        0.01      0.01      7.44      0.01         0.01
  GQ78                        0.01      0.01      7.63      0.01         0.01
  GQ79                        0.01      0.01      7.63      0.01         0.01
  GQ80                        0.01      0.01      6.41      0.01         0.01
  GQ81                        6.30      6.41      6.63      6.11         1.24
  GQ82                        0.01      0.01      6.63      0.01         0.01
  GQ84                        0.01      0.01      2.77      0.01         0.01
  GQ85                        0.01      0.01      7.74      0.01         0.01
  GQ86                        0.01      0.01      7.61      0.01         0.01
  GQ87                        0.01      0.01      7.61      0.01         0.01
  GQ88                        0.01      0.01      7.61      0.01         0.01
  GQ89                        0.01      0.01      7.49      0.01         0.01
  GQ90                        0.01      0.01      7.42      0.01         0.01
  GQ91                        0.01      0.01      7.52      0.01         0.01
  GQ94                        0.01      0.01      0.01      0.27         0.01
  GQ95                        0.01      0.01      7.67      0.01         0.01
  GQ98                        0.01      0.01      7.58      0.01         0.01
  GQ99                        0.01      0.01      7.33      0.01         0.01
  GQ101                       0.01      0.01      7.52      0.01         0.01
  GQ102                       0.01      0.01      7.54      0.01         0.01
  GQ103                       0.01      0.01      7.57      0.01         0.01
  GQ104                       0.01      0.01      7.57      0.01         0.01
  GQ105                       7.51      7.51      7.54      6.29         0.01
  GQ106                       0.01      0.01      7.52      0.01         0.01
  GQ107                       0.01      0.01      7.52      0.01         0.01
  GQ108                       6.08      6.08      7.51      0.01         0.01
  GQ110                       0.01      0.01      7.44      0.01         0.01
  GQ111                       0.01      0.01      7.52      0.01         0.01
  GQ114                       0.01      0.01      7.63      0.01         0.01
  GQ116                       0.01      0.01      7.62      0.01         0.01
  GQ119                       0.35      0.35      7.58      0.01         0.01
  GQ120                       0.01      0.01      7.56      0.01         0.01
  GQ121                       7.52      7.52      7.58      0.01         0.01
  GQ122                       0.01      0.01      7.52      0.01         0.01
  GQ123                       0.01      0.01      7.52      0.01         0.01
  GQ125                       0.01      0.01      7.52      0.01         0.01
  GQ126                       0.01      0.01      7.52      0.01         0.01
  GQ127                       0.01      0.01      0.35      0.01         0.01
  GQ129                       3.81      3.81      7.59      0.01         0.01
  GQ130                       3.96      3.96      7.77      0.01         0.01
  GQ131                       0.01      0.01      7.71      0.01         0.01
  

  Analysis begun on:  Sat Mar 25 16:19:38 2023
  Analysis ended on:  Sat Mar 25 16:19:41 2023
  Total elapsed time: 00:00:03