
  OWA STORM WATER MANAGEMENT MODEL - VERSION v5.1.14 (OWA 2022-07-31)
  --------------------------------------------------------------

  INP file created by DSDAConvertToSwmmTools 
  version 0.0.1 EcoVista 
  Title/Notes: 
  
  
  *********************************************************
  NOTE: The summary statistics displayed in this report are
  based on results found at every computational time step,  
  not just on results from each reporting time step.
  *********************************************************
  
  ****************
  Analysis Options
  ****************
  Flow Units ............... CMS
  Process Models:
    Rainfall/Runoff ........ YES
    RDII ................... NO
    Snowmelt ............... NO
    Groundwater ............ NO
    Flow Routing ........... YES
    Ponding Allowed ........ NO
    Water Quality .......... NO
  Infiltration Method ...... GREEN_AMPT
  Flow Routing Method ...... DYNWAVE
  Surcharge Method ......... EXTRAN
  Starting Date ............ 07/15/2020 00:00:00
  Ending Date .............. 07/15/2020 12:00:00
  Antecedent Dry Days ...... 0.0
  Report Time Step ......... 00:30:00
  Wet Time Step ............ 00:05:00
  Dry Time Step ............ 01:00:00
  Routing Time Step ........ 30.00 sec
  Variable Time Step ....... YES
  Maximum Trials ........... 8
  Number of Threads ........ 1
  Head Tolerance ........... 0.001500 m
  
  
  **************************        Volume         Depth
  Runoff Quantity Continuity     hectare-m            mm
  **************************     ---------       -------
  Total Precipitation ......       148.670        37.200
  Evaporation Loss .........         4.129         1.033
  Infiltration Loss ........        39.731         9.942
  Surface Runoff ...........        97.362        24.362
  Final Storage ............         7.538         1.886
  Continuity Error (%) .....        -0.061
  
  
  **************************        Volume        Volume
  Flow Routing Continuity        hectare-m      10^6 ltr
  **************************     ---------     ---------
  Dry Weather Inflow .......         0.000         0.000
  Wet Weather Inflow .......        97.286       972.872
  Groundwater Inflow .......         0.000         0.000
  RDII Inflow ..............         0.000         0.000
  External Inflow ..........         0.000         0.000
  External Outflow .........         8.967        89.669
  Flooding Loss ............        86.806       868.073
  Evaporation Loss .........         0.000         0.000
  Exfiltration Loss ........         0.000         0.000
  Initial Stored Volume ....         0.000         0.000
  Final Stored Volume ......         1.336        13.355
  Continuity Error (%) .....         0.182
  
  
  *************************
  Highest Continuity Errors
  *************************
  Node jd51 (5.58%)
  Node jd64 (4.57%)
  Node jd59 (4.48%)
  Node jd31 (4.15%)
  Node jd55 (3.88%)
  
  
  ***************************
  Time-Step Critical Elements
  ***************************
  Link GQ73 (95.37%)
  
  
  ********************************
  Highest Flow Instability Indexes
  ********************************
  Link GQ67 (19)
  Link GQ114 (11)
  Link GQ29 (11)
  Link GQ121 (7)
  Link GQ60 (3)
  
  
  *************************
  Routing Time Step Summary
  *************************
  Minimum Time Step           :     3.89 sec
  Average Time Step           :     8.62 sec
  Maximum Time Step           :    30.00 sec
  Percent in Steady State     :     0.00
  Average Iterations per Step :     3.89
  Percent Not Converging      :    12.53
  
  
  ***************************
  Subcatchment Runoff Summary
  ***************************
  
  ------------------------------------------------------------------------------------------------------------------------------
                            Total      Total      Total      Total     Imperv       Perv      Total       Total     Peak  Runoff
                           Precip      Runon       Evap      Infil     Runoff     Runoff     Runoff      Runoff   Runoff   Coeff
  Subcatchment                 mm         mm         mm         mm         mm         mm         mm    10^6 ltr      CMS
  ------------------------------------------------------------------------------------------------------------------------------
  1                         37.20       0.00       0.62      20.84      14.76       0.00      14.76        5.84     0.43   0.397
  2                         37.20       0.00       1.11       7.92      26.00       0.00      26.00       23.51     1.74   0.699
  3                         37.20       0.00       1.15       6.79      27.22       0.00      27.22       10.89     0.81   0.732
  4                         37.20       0.00       1.19       5.83      28.19       0.00      28.19        2.37     0.17   0.758
  5                         37.20       0.00       1.05       9.47      24.93       0.00      24.93        3.08     0.23   0.670
  6                         37.20       0.00       1.01      10.66      23.91       0.00      23.91        2.22     0.16   0.643
  7                         37.20       0.00       1.05       9.52      24.68       0.00      24.68       10.76     0.79   0.664
  8                         37.20       0.00       1.33       2.08      31.39       0.00      31.39        4.37     0.32   0.844
  9                         37.20       0.00       1.37       1.04      32.37       0.00      32.37        3.79     0.28   0.870
  10                        37.20       0.00       1.18       6.05      27.90       0.00      27.90        6.29     0.46   0.750
  11                        37.20       0.00       1.28       3.56      30.04       0.00      30.04       14.89     1.10   0.808
  12                        37.20       0.00       1.00      10.69      23.75       0.00      23.75       11.59     0.86   0.638
  13                        37.20       0.00       1.26       4.01      29.66       0.00      29.66       13.41     0.99   0.797
  14                        37.20       0.00       1.26       4.06      29.71       0.00      29.71        5.61     0.41   0.799
  15                        37.20       0.00       1.16       6.54      27.44       0.00      27.44        9.28     0.69   0.738
  16                        37.20       0.00       1.21       5.40      28.42       0.00      28.42        8.40     0.62   0.764
  17                        37.20       0.00       1.13       7.43      26.65       0.00      26.65       11.15     0.82   0.716
  18                        37.20       0.00       1.30       2.93      30.60       0.00      30.60       12.63     0.94   0.823
  19                        37.20       0.00       1.29       3.06      30.46       0.00      30.46        6.85     0.51   0.819
  20                        37.20       0.00       1.29       3.27      30.13       0.00      30.13       16.17     1.20   0.810
  21                        37.20       0.00       1.37       1.09      32.21       0.00      32.21       10.11     0.75   0.866
  22                        37.20       0.00       1.34       1.76      31.59       0.00      31.59        3.89     0.29   0.849
  23                        37.20       0.00       1.24       4.55      29.10       0.00      29.10       16.66     1.23   0.782
  24                        37.20       0.00       1.19       5.68      28.08       0.00      28.08        4.98     0.37   0.755
  25                        37.20       0.00       1.28       3.49      30.18       0.00      30.18        6.11     0.45   0.811
  26                        37.20       0.00       1.09       8.49      25.53       0.00      25.53        8.96     0.66   0.686
  27                        37.20       0.00       1.30       2.78      30.56       0.00      30.56       12.92     0.96   0.822
  28                        37.20       0.00       1.33       2.05      31.29       0.00      31.29       14.79     1.10   0.841
  29                        37.20       0.00       1.19       5.77      28.19       0.00      28.19        6.58     0.49   0.758
  30                        37.20       0.00       1.36       1.26      32.28       0.00      32.28        2.31     0.17   0.868
  31                        37.20       0.00       1.38       0.78      32.53       0.00      32.53        7.17     0.53   0.874
  32                        37.20       0.00       1.35       1.66      31.72       0.00      31.72       13.71     1.01   0.853
  33                        37.20       0.00       1.36       1.21      32.08       0.00      32.08       11.30     0.84   0.862
  34                        37.20       0.00       1.27       3.77      29.87       0.00      29.87        8.76     0.65   0.803
  35                        37.20       0.00       1.30       2.81      30.71       0.00      30.71       12.74     0.94   0.826
  36                        37.20       0.00       1.07       8.86      25.41       0.00      25.41       10.00     0.74   0.683
  37                        37.20       0.00       1.33       2.01      31.41       0.00      31.41        6.97     0.52   0.844
  38                        37.20       0.00       1.25       4.21      29.50       0.00      29.50       11.25     0.83   0.793
  39                        37.20       0.00       1.13       7.40      26.70       0.00      26.70       11.27     0.83   0.718
  40                        37.20       0.00       1.26       4.02      29.65       0.00      29.65        6.78     0.50   0.797
  41                        37.20       0.00       1.29       3.27      30.39       0.00      30.39        5.99     0.44   0.817
  42                        37.20       0.00       1.28       3.31      30.14       0.00      30.14        7.44     0.55   0.810
  43                        37.20       0.00       1.08       8.70      25.43       0.00      25.43       20.10     1.48   0.684
  44                        37.20       0.00       1.15       6.78      27.11       0.00      27.11       13.10     0.97   0.729
  45                        37.20       0.00       1.08       8.63      25.53       0.00      25.53       18.48     1.36   0.686
  46                        37.20       0.00       1.05       9.61      24.79       0.00      24.79       12.39     0.91   0.666
  47                        37.20       0.00       1.10       8.23      25.89       0.00      25.89       30.18     2.23   0.696
  48                        37.20       0.00       1.31       2.57      30.72       0.00      30.72       17.83     1.32   0.826
  49                        37.20       0.00       1.20       5.51      28.14       0.00      28.14       19.05     1.41   0.757
  50                        37.20       0.00       1.33       2.09      31.00       0.00      31.00       12.19     0.90   0.833
  51                        37.20       0.00       1.27       3.61      29.71       0.00      29.71        5.56     0.41   0.799
  52                        37.20       0.00       0.62      20.87      14.77       0.00      14.77       15.16     1.11   0.397
  53                        37.20       0.00       0.90      13.55      21.30       0.00      21.30       22.69     1.67   0.573
  54                        37.20       0.00       1.11       8.01      26.14       0.00      26.14        6.37     0.47   0.703
  55                        37.20       0.00       0.63      20.49      15.11       0.00      15.11       11.92     0.87   0.406
  56                        37.20       0.00       0.24      30.90       5.78       0.00       5.78        4.71     0.34   0.155
  57                        37.20       0.00       1.25       4.14      29.36       0.00      29.36       24.39     1.80   0.789
  58                        37.20       0.00       1.16       6.57      27.41       0.00      27.41        4.51     0.33   0.737
  59                        37.20       0.00       1.13       7.30      26.88       0.00      26.88        3.42     0.25   0.722
  60                        37.20       0.00       0.42      26.00      10.19       0.00      10.19        2.92     0.21   0.274
  61                        37.20       0.00       0.66      19.77      15.65       0.00      15.65        5.90     0.43   0.421
  62                        37.20       0.00       0.92      12.94      21.69       0.00      21.69       25.41     1.87   0.583
  63                        37.20       0.00       1.25       4.10      29.29       0.00      29.29       56.65     4.18   0.787
  64                        37.20       0.00       0.94      12.51      22.20       0.00      22.20        4.77     0.35   0.597
  65                        37.20       0.00       1.27       3.63      29.74       0.00      29.74       20.00     1.48   0.799
  66                        37.20       0.00       1.00      10.76      23.58       0.00      23.58        6.01     0.44   0.634
  67                        37.20       0.00       0.94      12.49      22.27       0.00      22.27        7.20     0.53   0.599
  68                        37.20       0.00       1.12       7.56      26.57       0.00      26.57        2.95     0.22   0.714
  69                        37.20       0.00       0.66      19.80      15.81       0.00      15.81        5.06     0.37   0.425
  70                        37.20       0.00       0.93      12.71      21.93       0.00      21.93       18.04     1.33   0.590
  71                        37.20       0.00       1.15       6.95      27.10       0.00      27.10        3.32     0.25   0.729
  72                        37.20       0.00       1.21       5.31      28.56       0.00      28.56        3.56     0.26   0.768
  73                        37.20       0.00       1.10       8.31      25.97       0.00      25.97        4.31     0.32   0.698
  74                        37.20       0.00       1.04       9.66      24.75       0.00      24.75        5.33     0.39   0.665
  75                        37.20       0.00       1.16       6.59      27.44       0.00      27.44        3.95     0.29   0.738
  76                        37.20       0.00       1.22       5.00      28.88       0.00      28.88        2.80     0.21   0.776
  77                        37.20       0.00       1.30       2.86      30.71       0.00      30.71        3.32     0.25   0.825
  78                        37.20       0.00       1.26       4.07      29.62       0.00      29.62        3.25     0.24   0.796
  79                        37.20       0.00       0.55      22.67      13.18       0.00      13.18       13.97     1.02   0.354
  80                        37.20       0.00       1.04       9.82      24.44       0.00      24.44       15.30     1.13   0.657
  81                        37.20       0.00       1.05       9.38      24.81       0.00      24.81       10.81     0.80   0.667
  82                        37.20       0.00       1.01      10.56      23.78       0.00      23.78       21.80     1.61   0.639
  83                        37.20       0.00       1.26       3.90      29.83       0.00      29.83        3.65     0.27   0.802
  84                        37.20       0.00       1.19       5.78      28.10       0.00      28.10        3.35     0.25   0.755
  85                        37.20       0.00       1.40       0.28      33.06       0.00      33.06        3.07     0.23   0.889
  86                        37.20       0.00       1.29       3.14      30.46       0.00      30.46        4.49     0.33   0.819
  87                        37.20       0.00       1.38       0.80      32.47       0.00      32.47        4.27     0.32   0.873
  88                        37.20       0.00       1.23       4.64      29.18       0.00      29.18        2.79     0.21   0.784
  89                        37.20       0.00       1.30       2.99      30.63       0.00      30.63        5.90     0.44   0.823
  90                        37.20       0.00       1.41       0.01      33.37       0.00      33.37        0.38     0.03   0.897
  91                        37.20       0.00       1.17       6.23      27.51       0.00      27.51        6.00     0.44   0.740
  92                        37.20       0.00       1.30       2.89      30.69       0.00      30.69        3.84     0.28   0.825
  93                        37.20       0.00       1.06       9.24      25.03       0.00      25.03       12.81     0.95   0.673
  94                        37.20       0.00       0.95      12.05      22.73       0.00      22.73        1.59     0.12   0.611
  95                        37.20       0.00       1.41       0.04      33.26       0.00      33.26        0.73     0.05   0.894
  96                        37.20       0.00       1.14       7.20      26.91       0.00      26.91        3.29     0.24   0.723
  97                        37.20       0.00       1.38       0.79      32.57       0.00      32.57        3.23     0.24   0.876
  98                        37.20       0.00       1.14       7.03      27.08       0.00      27.08        3.34     0.25   0.728
  99                        37.20       0.00       0.57      22.26      13.57       0.00      13.57        5.04     0.37   0.365
  100                       37.20       0.00       0.63      20.59      15.08       0.00      15.08        3.87     0.28   0.405
  101                       37.20       0.00       0.65      20.18      15.41       0.00      15.41        7.55     0.55   0.414
  102                       37.20       0.00       1.05       9.46      24.86       0.00      24.86        6.06     0.45   0.668
  103                       37.20       0.00       0.35      27.93       8.47       0.00       8.47        3.08     0.22   0.228
  104                       37.20       0.00       0.24      30.93       5.73       0.00       5.73        5.55     0.40   0.154
  105                       37.20       0.00       1.16       6.61      27.45       0.00      27.45        3.59     0.26   0.738
  106                       37.20       0.00       0.63      20.63      15.01       0.00      15.01        3.66     0.27   0.403
  
  
  ******************
  Node Depth Summary
  ******************
  
  ---------------------------------------------------------------------------------
                                 Average  Maximum  Maximum  Time of Max    Reported
                                   Depth    Depth      HGL   Occurrence   Max Depth
  Node                 Type       Meters   Meters   Meters  days hr:min      Meters
  ---------------------------------------------------------------------------------
  jd1                  JUNCTION     0.11     0.18   273.18     0  08:00        0.18
  jd2                  JUNCTION     0.37     3.00   270.00     0  07:55        1.24
  jd3                  JUNCTION     2.63     3.00   266.00     0  04:01        3.00
  jd4                  JUNCTION     1.65     3.00   270.00     0  06:34        3.00
  jd5                  JUNCTION     0.08     0.13   274.13     0  08:00        0.13
  jd6                  JUNCTION     0.10     0.16   275.16     0  08:00        0.16
  jd7                  JUNCTION     0.32     0.46   264.56     0  08:00        0.46
  jd8                  JUNCTION     1.97     3.00   267.00     0  06:18        3.00
  jd9                  JUNCTION     1.72     3.00   268.00     0  06:18        3.00
  jd10                 JUNCTION     2.65     3.00   273.00     0  03:53        3.00
  jd11                 JUNCTION     0.09     0.14   282.14     0  08:00        0.14
  jd12                 JUNCTION     2.68     3.00   272.00     0  03:40        3.00
  jd13                 JUNCTION     0.11     0.17   289.17     0  08:00        0.17
  jd14                 JUNCTION     0.25     0.43   280.43     0  08:00        0.43
  jd15                 JUNCTION     0.25     0.41   278.41     0  08:00        0.41
  jd16                 JUNCTION     0.27     0.45   274.45     0  08:00        0.45
  jd17                 JUNCTION     2.19     3.00   278.80     0  04:45        3.00
  jd18                 JUNCTION     0.30     0.70   279.70     0  08:07        0.67
  jd19                 JUNCTION     1.56     3.00   270.00     0  06:33        3.00
  jd20                 JUNCTION     0.19     0.27   273.27     0  08:00        0.27
  jd21                 JUNCTION     2.62     3.00   273.00     0  04:35        3.00
  jd22                 JUNCTION     1.86     3.00   275.00     0  07:08        3.00
  jd23                 JUNCTION     0.21     0.36   278.36     0  08:00        0.36
  jd24                 JUNCTION     0.13     0.20   285.20     0  08:00        0.20
  jd25                 JUNCTION     0.21     0.35   279.35     0  08:00        0.35
  jd26                 JUNCTION     0.25     0.44   285.44     0  08:00        0.44
  jd27                 JUNCTION     0.20     0.33   291.33     0  08:00        0.33
  jd28                 JUNCTION     2.72     3.00   290.00     0  03:24        3.00
  jd29                 JUNCTION     0.09     0.14   299.14     0  08:00        0.14
  jd30                 JUNCTION     0.12     0.20   290.20     0  08:00        0.20
  jd31                 JUNCTION     0.94     2.49   274.49     0  04:35        1.26
  jd32                 JUNCTION     2.71     3.00   275.00     0  03:31        3.00
  jd33                 JUNCTION     0.17     0.28   289.28     0  08:00        0.28
  jd34                 JUNCTION     0.20     0.33   294.33     0  08:00        0.33
  jd35                 JUNCTION     2.76     3.00   292.00     0  03:02        3.00
  jd36                 JUNCTION     0.81     3.00   302.00     0  07:28        3.00
  jd37                 JUNCTION     0.51     3.00   306.00     0  07:31        2.93
  jd38                 JUNCTION     0.36     0.65   297.65     0  08:00        0.65
  jd39                 JUNCTION     2.64     3.00   297.00     0  04:00        3.00
  jd40                 JUNCTION     1.46     3.00   302.00     0  07:06        3.00
  jd41                 JUNCTION     2.51     3.00   296.00     0  04:56        3.00
  jd42                 JUNCTION     0.18     0.29   305.29     0  08:00        0.29
  jd43                 JUNCTION     1.41     3.00   300.00     0  07:11        3.00
  jd44                 JUNCTION     1.44     3.00   286.00     0  07:11        3.00
  jd45                 JUNCTION     2.69     3.00   282.00     0  03:42        3.00
  jd46                 JUNCTION     0.25     0.42   275.42     0  08:00        0.42
  jd47                 JUNCTION     0.14     0.23   315.23     0  08:00        0.23
  jd48                 JUNCTION     0.10     0.16   325.16     0  08:00        0.16
  jd49                 JUNCTION     0.23     0.38   289.38     0  08:00        0.38
  jd50                 JUNCTION     2.73     3.00   278.00     0  03:18        3.00
  jd51                 JUNCTION     2.46     3.00   313.00     0  05:08        3.00
  jd52                 JUNCTION     0.53     3.00   326.00     0  07:51        1.94
  jd53                 JUNCTION     0.68     3.00   325.00     0  07:36        2.39
  jd54                 JUNCTION     0.26     0.42   326.42     0  08:00        0.42
  jd55                 JUNCTION     1.48     3.00   325.00     0  07:51        3.00
  jd56                 JUNCTION     0.17     0.29   327.29     0  08:00        0.29
  jd59                 JUNCTION     2.41     3.00   320.80     0  05:21        3.00
  jd60                 JUNCTION     2.68     3.00   319.00     0  03:39        3.00
  jd61                 JUNCTION     0.13     0.21   329.21     0  08:00        0.21
  jd62                 JUNCTION     0.06     0.09   335.09     0  08:00        0.09
  jd63                 JUNCTION     0.06     0.10   324.10     0  08:00        0.10
  jd64                 JUNCTION     2.23     3.00   321.00     0  05:21        2.84
  jd65                 JUNCTION     1.85     3.00   307.00     0  06:14        3.00
  jd66                 JUNCTION     2.63     3.00   304.00     0  04:01        3.00
  jd69                 JUNCTION     0.21     0.34   333.34     0  08:00        0.34
  jd79                 JUNCTION     2.64     3.00   274.00     0  03:30        3.00
  jd80                 JUNCTION     2.26     3.00   279.00     0  04:45        3.00
  jd81                 JUNCTION     0.13     0.22   288.22     0  08:00        0.22
  jd83                 JUNCTION     2.76     3.00   323.00     0  03:05        3.00
  jd84                 JUNCTION     0.22     0.37   323.37     0  08:00        0.37
  jd85                 JUNCTION     2.64     3.00   324.00     0  03:58        3.00
  jd87                 JUNCTION     2.66     3.00   322.00     0  03:47        3.00
  jd89                 JUNCTION     0.14     0.23   324.23     0  08:00        0.23
  jd90                 JUNCTION     0.13     0.20   328.20     0  08:00        0.20
  jd92                 JUNCTION     0.13     0.21   326.21     0  08:00        0.21
  jd93                 JUNCTION     0.56     3.00   327.00     0  07:51        2.20
  jd94                 JUNCTION     0.23     0.40   326.60     0  08:02        0.40
  jd95                 JUNCTION     0.30     0.51   327.51     0  08:00        0.51
  jd96                 JUNCTION     2.68     3.00   308.00     0  03:45        3.00
  jd97                 JUNCTION     0.31     0.51   327.71     0  08:00        0.51
  jd98                 JUNCTION     0.17     0.28   329.28     0  08:00        0.28
  jd99                 JUNCTION     2.62     3.00   327.00     0  04:02        3.00
  jd101                JUNCTION     0.10     0.16   321.16     0  08:00        0.16
  jd102                JUNCTION     0.21     0.35   324.35     0  08:00        0.35
  jd103                JUNCTION     0.10     0.16   318.16     0  08:00        0.16
  jd106                JUNCTION     2.53     3.00   287.00     0  04:39        3.00
  jd107                JUNCTION     0.19     0.31   332.31     0  08:00        0.31
  jd108                JUNCTION     1.11     1.34   327.34     0  07:40        1.34
  jd109                JUNCTION     0.15     0.24   343.24     0  08:00        0.24
  jd110                JUNCTION     2.64     3.00   327.00     0  04:02        3.00
  jd111                JUNCTION     0.07     0.11   344.11     0  08:00        0.11
  jd112                JUNCTION     0.09     0.14   334.14     0  08:00        0.14
  jd113                JUNCTION     0.09     0.15   348.15     0  08:00        0.15
  jd114                JUNCTION     2.68     3.00   317.00     0  03:41        3.00
  jd117                JUNCTION     1.12     1.66   317.66     0  08:00        1.66
  jd118                JUNCTION     0.08     0.13   330.13     0  08:00        0.13
  jd120                JUNCTION     0.14     0.23   327.23     0  08:00        0.23
  jd121                JUNCTION     0.15     0.24   320.24     0  08:00        0.24
  jd122                JUNCTION     2.63     3.00   276.00     0  04:03        3.00
  jd123                JUNCTION     2.62     3.00   276.20     0  04:03        3.00
  jd124                JUNCTION     2.82     3.00   271.00     0  02:31        3.00
  jd125                JUNCTION     1.60     3.00   278.00     0  06:33        3.00
  jd126                JUNCTION     2.77     3.00   275.00     0  03:00        3.00
  jd135                JUNCTION     0.12     0.20   289.20     0  08:00        0.20
  jd136                JUNCTION     0.24     0.39   341.39     0  08:00        0.39
  psk1                 OUTFALL      0.09     0.13   279.13     0  08:00        0.13
  psk2                 OUTFALL      0.12     0.20   270.20     0  08:00        0.20
  psk3                 OUTFALL      0.27     0.45   271.45     0  08:00        0.45
  psk4                 OUTFALL      0.00     0.00   280.00     0  00:00        0.00
  psk5                 OUTFALL      0.11     0.18   263.18     0  08:00        0.18
  psk6                 OUTFALL      0.08     0.12   259.12     0  08:00        0.12
  psk7                 OUTFALL      0.32     0.46   262.46     0  08:00        0.46
  psk8                 OUTFALL      0.00     0.00   317.00     0  00:00        0.00
  
  
  *******************
  Node Inflow Summary
  *******************
  
  -------------------------------------------------------------------------------------------------
                                  Maximum  Maximum                  Lateral       Total        Flow
                                  Lateral    Total  Time of Max      Inflow      Inflow     Balance
                                   Inflow   Inflow   Occurrence      Volume      Volume       Error
  Node                 Type           CMS      CMS  days hr:min    10^6 ltr    10^6 ltr     Percent
  -------------------------------------------------------------------------------------------------
  jd1                  JUNCTION     0.428    0.689     0  08:00        5.84        9.46       0.154
  jd2                  JUNCTION     0.662    0.903     0  08:00        8.95        12.3       0.263
  jd3                  JUNCTION     0.795    2.208     0  08:00        10.8        32.8       1.225
  jd4                  JUNCTION     0.956    1.068     0  08:00        12.9        14.4       0.313
  jd5                  JUNCTION     0.280    0.479     0  08:00        3.78        6.57       0.063
  jd6                  JUNCTION     0.323    0.323     0  08:00        4.37        4.37       0.091
  jd7                  JUNCTION     0.163    1.843     0  08:00        2.22        30.9       0.160
  jd8                  JUNCTION     0.227    1.173     0  08:00        3.08        21.5       0.886
  jd9                  JUNCTION     0.174    1.242     0  08:00        2.36        21.4       0.218
  jd10                 JUNCTION     0.464    0.590     0  08:00        6.28        7.99       1.266
  jd11                 JUNCTION     0.685    0.685     0  08:00        9.27        9.27       0.123
  jd12                 JUNCTION     0.516    1.125     0  08:00        6.97        15.1       0.910
  jd13                 JUNCTION     0.935    0.935     0  08:00        12.6        12.6       0.095
  jd14                 JUNCTION     1.095    1.235     0  08:00        14.8        16.6       0.175
  jd15                 JUNCTION     0.452    1.015     0  08:00        6.11        13.5       0.448
  jd16                 JUNCTION     0.486    1.908     0  08:00        6.58        25.4       0.178
  jd17                 JUNCTION     1.015    2.383     0  08:00        13.7        35.5       1.973
  jd18                 JUNCTION     0.805    1.171     0  08:00        10.9        15.8       0.250
  jd19                 JUNCTION     0.748    1.367     0  08:00        10.1        20.5       0.185
  jd20                 JUNCTION     0.621    0.854     0  08:00        8.39        14.4       0.333
  jd21                 JUNCTION     0.288    2.121     0  08:00        3.88        31.8       1.062
  jd22                 JUNCTION     0.507    1.086     0  08:00        6.84        15.1       0.554
  jd23                 JUNCTION     0.501    1.405     0  08:00        6.78        18.8       0.142
  jd24                 JUNCTION     0.824    0.824     0  08:00        11.1        11.1       0.114
  jd25                 JUNCTION     0.648    0.939     0  08:00        8.75        12.7       0.196
  jd26                 JUNCTION     0.943    1.589     0  08:00        12.7        21.4       0.180
  jd27                 JUNCTION     0.969    1.625     0  08:00        13.1        22.3       0.174
  jd28                 JUNCTION     1.320    1.837     0  08:00        17.8        25.2       0.530
  jd29                 JUNCTION     0.531    0.531     0  08:00        7.16        7.16       0.072
  jd30                 JUNCTION     0.551    1.788     0  08:00        7.44        22.2       0.101
  jd31                 JUNCTION     0.368    0.776     0  08:00        4.98        10.8       4.326
  jd32                 JUNCTION     0.749    2.887     0  08:00        10.1        42.7       0.582
  jd33                 JUNCTION     0.737    1.237     0  08:00        9.99        16.6       0.101
  jd34                 JUNCTION     0.913    0.913     0  08:00        12.4        12.4       0.085
  jd35                 JUNCTION     0.833    2.679     0  08:00        11.3        38.4       0.341
  jd36                 JUNCTION     1.409    2.243     0  08:00          19          31       0.198
  jd37                 JUNCTION     1.483    1.483     0  08:00        20.1        20.1       0.126
  jd38                 JUNCTION     1.364    2.312     0  08:00        18.5        30.7       0.276
  jd39                 JUNCTION     0.945    3.373     0  08:00        12.8        51.7       0.991
  jd40                 JUNCTION     1.609    3.877     0  07:37        21.8        53.6       0.270
  jd41                 JUNCTION     1.131    4.151     0  08:00        15.3        60.4       3.649
  jd42                 JUNCTION     1.479    1.622     0  08:00          20        21.9       0.218
  jd43                 JUNCTION     1.667    2.994     0  08:00        22.7        40.1       0.279
  jd44                 JUNCTION     2.228    4.545     0  08:00        30.2        68.9       0.258
  jd45                 JUNCTION     0.900    3.125     0  08:00        12.2        47.5       0.678
  jd46                 JUNCTION     0.411    0.411     0  08:00        5.56        5.56       0.701
  jd47                 JUNCTION     1.331    1.331     0  08:00          18          18       0.122
  jd48                 JUNCTION     0.369    0.369     0  08:00        5.06        5.06       0.104
  jd49                 JUNCTION     1.804    1.804     0  08:00        24.4        24.4       0.179
  jd50                 JUNCTION     1.874    4.284     0  08:00        25.4        68.7       0.629
  jd51                 JUNCTION     0.392    1.805     0  08:00        5.32        24.5       5.913
  jd52                 JUNCTION     0.799    3.234     0  07:51        10.8        42.3       0.226
  jd53                 JUNCTION     0.444    2.321     0  07:28        5.99        32.3       0.099
  jd54                 JUNCTION     0.239    1.190     0  08:00        3.23        16.1       0.178
  jd55                 JUNCTION     0.436    1.486     0  08:00        5.89        19.7       4.038
  jd56                 JUNCTION     0.265    0.775     0  08:00        3.59        10.5       0.161
  jd59                 JUNCTION     0.263    1.304     0  08:00        3.56        17.2       4.689
  jd60                 JUNCTION     0.471    0.999     0  08:00        6.37        13.6       0.946
  jd61                 JUNCTION     0.528    0.594     0  08:00        7.19        8.09       0.124
  jd62                 JUNCTION     0.213    0.213     0  08:00        2.92        2.92       0.044
  jd63                 JUNCTION     0.292    0.292     0  08:00        3.95        3.95       0.084
  jd64                 JUNCTION     0.246    0.607     0  08:00        3.32         8.2       4.792
  jd65                 JUNCTION     4.184    4.184     0  08:00        56.6        56.6       0.135
  jd66                 JUNCTION     0.551    1.600     0  08:00        7.55        21.9       1.450
  jd69                 JUNCTION     1.020    1.049     0  08:00          14        14.3       0.157
  jd79                 JUNCTION     0.992    1.811     0  07:43        13.4        24.6       0.712
  jd80                 JUNCTION     1.102    1.389     0  08:00        14.9        19.4       0.705
  jd81                 JUNCTION     0.837    0.837     0  08:00        11.3        11.3       0.042
  jd83                 JUNCTION     0.873    1.084     0  08:00        11.9        15.4       0.551
  jd84                 JUNCTION     1.110    1.110     0  08:00        15.1        15.1       0.113
  jd85                 JUNCTION     0.252    0.413     0  08:00        3.42        5.62       1.521
  jd87                 JUNCTION     0.207    0.498     0  08:00         2.8        6.77       1.094
  jd89                 JUNCTION     0.241    0.241     0  08:00        3.25        3.25       0.179
  jd90                 JUNCTION     0.246    0.246     0  08:00        3.32        3.32       0.110
  jd92                 JUNCTION     0.206    0.206     0  08:00        2.79        2.79       0.092
  jd93                 JUNCTION     0.444    0.956     0  07:51           6          13       0.188
  jd94                 JUNCTION     0.028    0.516     0  08:00       0.383        6.99       0.227
  jd95                 JUNCTION     0.054    0.488     0  08:00       0.726        6.62       0.203
  jd96                 JUNCTION     0.403    0.537     0  08:00        5.54        7.36       1.309
  jd97                 JUNCTION     0.435    0.435     0  08:00        5.89        5.89       0.053
  jd98                 JUNCTION     0.243    0.243     0  08:00        3.29        3.29       0.089
  jd99                 JUNCTION     0.117    0.332     0  08:00        1.59        5.01       1.131
  jd101                JUNCTION     0.318    0.634     0  08:00        4.31        8.57       0.090
  jd102                JUNCTION     0.316    0.316     0  08:00        4.27        4.27       0.138
  jd103                JUNCTION     0.218    0.218     0  08:00        2.95        2.95       0.050
  jd106                JUNCTION     0.171    1.028     0  08:00        2.31        13.5       2.919
  jd107                JUNCTION     0.246    0.809     0  08:00        3.34          11       0.172
  jd108                JUNCTION     0.268    0.268     0  08:00        3.66        3.68       1.795
  jd109                JUNCTION     0.447    0.447     0  08:00        6.06        6.06       0.042
  jd110                JUNCTION     0.340    0.507     0  08:00        4.71        6.99       2.202
  jd111                JUNCTION     0.282    0.282     0  08:00        3.87        3.87       0.084
  jd112                JUNCTION     0.332    0.922     0  08:00        4.48        12.6       0.068
  jd113                JUNCTION     0.223    0.223     0  08:00        3.08        3.08       0.017
  jd114                JUNCTION     0.269    3.305     0  07:51        3.64        46.9       0.674
  jd117                JUNCTION     0.248    0.815     0  08:00        3.35        11.2       1.446
  jd118                JUNCTION     0.227    0.227     0  08:00        3.07        3.07       0.020
  jd120                JUNCTION     0.284    0.284     0  08:00        3.83        3.83       0.084
  jd121                JUNCTION     0.350    0.350     0  08:00        4.76        4.76       0.109
  jd122                JUNCTION     0.832    3.220     0  08:00        11.2        48.2       1.169
  jd123                JUNCTION     0.855    2.876     0  08:00        11.6        47.2       1.506
  jd124                JUNCTION     1.233    2.306     0  08:00        16.6        37.7       0.154
  jd125                JUNCTION     1.197    2.872     0  08:00        16.2        46.6       0.131
  jd126                JUNCTION     1.737    2.407     0  08:00        23.5        32.8       0.309
  jd135                JUNCTION     0.443    0.443     0  08:00        5.99        5.99       0.064
  jd136                JUNCTION     0.367    0.591     0  08:00        5.04        8.11       0.165
  psk1                 OUTFALL      0.000    0.441     0  08:00           0        5.98       0.000
  psk2                 OUTFALL      0.000    1.325     0  08:00           0        16.4       0.000
  psk3                 OUTFALL      0.000    1.906     0  08:00           0        25.4       0.000
  psk4                 OUTFALL      0.000    0.000     0  00:00           0           0       0.000 ltr
  psk5                 OUTFALL      0.000    0.447     0  08:00           0        6.13       0.000
  psk6                 OUTFALL      0.000    0.367     0  08:00           0        5.03       0.000
  psk7                 OUTFALL      0.000    1.842     0  08:00           0        30.8       0.000
  psk8                 OUTFALL      0.000    0.000     0  00:00           0           0       0.000 ltr
  
  
  **********************
  Node Surcharge Summary
  **********************
  
  Surcharging occurs when water rises above the top of the highest conduit.
  ---------------------------------------------------------------------
                                               Max. Height   Min. Depth
                                   Hours       Above Crown    Below Rim
  Node                 Type      Surcharged         Meters       Meters
  ---------------------------------------------------------------------
  jd2                  JUNCTION        0.31          2.200        0.000
  jd3                  JUNCTION        7.98          2.200        0.000
  jd4                  JUNCTION        3.85          2.200        0.000
  jd8                  JUNCTION        6.69          2.200        0.000
  jd9                  JUNCTION        4.15          2.200        0.000
  jd10                 JUNCTION        8.11          2.400        0.000
  jd12                 JUNCTION        8.33          2.400        0.000
  jd17                 JUNCTION        6.78          2.200        0.000
  jd19                 JUNCTION        3.63          2.200        0.000
  jd21                 JUNCTION        8.08          2.200        0.000
  jd22                 JUNCTION        7.52          2.400        0.000
  jd28                 JUNCTION        8.61          2.400        0.000
  jd31                 JUNCTION        7.41          1.688        0.512
  jd32                 JUNCTION        8.49          2.200        0.000
  jd35                 JUNCTION        8.98          2.400        0.000
  jd36                 JUNCTION        2.57          2.400        0.000
  jd37                 JUNCTION        0.82          2.400        0.000
  jd39                 JUNCTION        8.00          2.000        0.000
  jd40                 JUNCTION        3.13          2.200        0.000
  jd41                 JUNCTION        7.07          1.000        0.000
  jd43                 JUNCTION        2.92          2.200        0.000
  jd44                 JUNCTION        3.01          2.000        0.000
  jd45                 JUNCTION        8.31          2.000        0.000
  jd50                 JUNCTION        8.70          2.200        0.000
  jd51                 JUNCTION        6.87          1.350        0.000
  jd52                 JUNCTION        0.42          1.500        0.000
  jd53                 JUNCTION        1.20          1.800        0.000
  jd55                 JUNCTION        3.61          1.500        0.000
  jd59                 JUNCTION        6.66          1.500        0.000
  jd60                 JUNCTION        8.35          2.400        0.000
  jd64                 JUNCTION        6.71          1.800        0.000
  jd65                 JUNCTION        4.44          2.400        0.000
  jd66                 JUNCTION        7.98          2.200        0.000
  jd79                 JUNCTION        8.50          2.400        0.000
  jd80                 JUNCTION        7.22          2.400        0.000
  jd83                 JUNCTION        8.93          2.400        0.000
  jd85                 JUNCTION        8.05          2.400        0.000
  jd87                 JUNCTION        8.22          2.400        0.000
  jd93                 JUNCTION        1.16          2.200        0.000
  jd96                 JUNCTION        8.25          2.200        0.000
  jd99                 JUNCTION        7.97          2.400        0.000
  jd106                JUNCTION        7.35          2.000        0.000
  jd108                JUNCTION        8.24          0.345        1.655
  jd110                JUNCTION        7.97          2.000        0.000
  jd114                JUNCTION        8.32          2.000        0.000
  jd117                JUNCTION        7.99          0.864        1.336
  jd122                JUNCTION        8.08          2.200        0.000
  jd123                JUNCTION        7.95          2.200        0.000
  jd124                JUNCTION        9.49          2.400        0.000
  jd125                JUNCTION        3.88          2.200        0.000
  jd126                JUNCTION        9.01          2.400        0.000
  
  
  *********************
  Node Flooding Summary
  *********************
  
  Flooding refers to all water that overflows a node, whether it ponds or not.
  --------------------------------------------------------------------------
                                                             Total   Maximum
                                 Maximum   Time of Max       Flood    Ponded
                        Hours       Rate    Occurrence      Volume     Depth
  Node                 Flooded       CMS   days hr:min    10^6 ltr    Meters
  --------------------------------------------------------------------------
  jd2                     0.01     0.053      0  07:55       0.000     0.000
  jd3                     7.98     2.208      0  08:00      32.403     0.000
  jd4                     3.63     0.558      0  08:00       4.579     0.000
  jd8                     3.53     0.119      0  07:50       1.099     0.000
  jd9                     3.11     0.296      0  08:00       2.942     0.000
  jd10                    8.11     0.590      0  08:00       7.886     0.000
  jd12                    8.32     1.125      0  08:00      14.992     0.000
  jd17                    4.23     1.554      0  08:00      15.226     0.000
  jd19                    2.91     0.299      0  08:00       1.442     0.000
  jd21                    7.41     2.121      0  08:00      31.158     0.000
  jd22                    2.91     0.262      0  08:00       1.367     0.000
  jd28                    8.60     1.837      0  08:00      25.022     0.000
  jd32                    8.48     2.887      0  08:00      42.491     0.000
  jd35                    8.97     2.679      0  08:00      38.319     0.000
  jd36                    0.59     0.261      0  07:28       0.217     0.000
  jd37                    0.01     0.179      0  07:31       0.002     0.000
  jd39                    8.00     3.373      0  08:00      51.209     0.000
  jd40                    3.01     1.315      0  07:37       9.852     0.000
  jd41                    7.06     4.151      0  08:00      58.264     0.000
  jd43                    2.89     1.163      0  08:00       7.808     0.000
  jd44                    2.85     0.907      0  07:11       2.970     0.000
  jd45                    8.30     3.125      0  08:00      47.178     0.000
  jd50                    8.69     4.283      0  08:00      68.288     0.000
  jd51                    6.87     1.805      0  08:00      23.102     0.000
  jd52                    0.01     0.511      0  07:51       0.005     0.000
  jd53                    0.01     0.095      0  07:36       0.000     0.000
  jd55                    0.34     0.463      0  08:00       0.398     0.000
  jd59                    6.65     1.304      0  08:00      16.473     0.000
  jd60                    8.34     0.999      0  08:00      13.448     0.000
  jd64                    0.01     0.086      0  05:21       0.001     0.000
  jd65                    4.37     3.091      0  08:00      30.978     0.000
  jd66                    7.98     1.600      0  08:00      21.561     0.000
  jd79                    6.72     1.578      0  07:43      18.457     0.000
  jd80                    4.70     1.231      0  08:00      13.901     0.000
  jd83                    8.92     1.084      0  08:00      15.308     0.000
  jd85                    8.03     0.413      0  08:00       5.539     0.000
  jd87                    8.21     0.498      0  08:00       6.693     0.000
  jd93                    0.01     0.008      0  07:51       0.000     0.000
  jd96                    8.24     0.537      0  08:00       7.263     0.000
  jd99                    7.97     0.332      0  08:00       4.950     0.000
  jd106                   7.35     1.028      0  08:00      13.162     0.000
  jd110                   7.97     0.507      0  08:00       6.844     0.000
  jd114                   7.99     3.302      0  07:51      46.514     0.000
  jd122                   7.95     3.220      0  08:00      47.535     0.000
  jd123                   7.62     2.562      0  08:00      37.578     0.000
  jd124                   9.49     2.306      0  08:00      37.635     0.000
  jd125                   2.90     0.486      0  08:00       3.385     0.000
  jd126                   9.00     2.406      0  08:00      32.660     0.000
  
  
  ***********************
  Outfall Loading Summary
  ***********************
  
  -----------------------------------------------------------
                         Flow       Avg       Max       Total
                         Freq      Flow      Flow      Volume
  Outfall Node           Pcnt       CMS       CMS    10^6 ltr
  -----------------------------------------------------------
  psk1                  97.41     0.219     0.441       5.979
  psk2                  97.33     0.609     1.325      16.373
  psk3                  97.47     0.934     1.906      25.350
  psk4                   0.00     0.000     0.000       0.000
  psk5                  97.39     0.224     0.447       6.131
  psk6                  97.31     0.185     0.367       5.032
  psk7                  97.45     1.095     1.842      30.803
  psk8                   0.00     0.000     0.000       0.000
  -----------------------------------------------------------
  System                73.04     3.265     0.000      89.669
  
  
  ********************
  Link Flow Summary
  ********************
  
  -----------------------------------------------------------------------------
                                 Maximum  Time of Max   Maximum    Max/    Max/
                                  |Flow|   Occurrence   |Veloc|    Full    Full
  Link                 Type          CMS  days hr:min     m/sec    Flow   Depth
  -----------------------------------------------------------------------------
  GQ1                  CONDUIT     0.260     0  08:00      1.88    0.68    0.49
  GQ2                  CONDUIT     0.751     0  08:00      2.33    0.36    0.43
  GQ3                  CONDUIT     0.441     0  08:00      5.60    0.02    0.09
  GQ4                  CONDUIT     0.510     0  06:55      1.80    1.00    1.00
  GQ5                  CONDUIT     0.903     0  08:00      1.80    0.75    1.00
  GQ6                  CONDUIT     0.241     0  08:00      1.12    0.11    0.61
  GQ7                  CONDUIT     1.675     0  08:14      3.52    1.00    1.00
  GQ8                  CONDUIT     0.485     0  08:00      1.22    0.46    0.74
  GQ9                  CONDUIT     1.317     0  08:00      3.30    0.46    0.74
  GQ10                 CONDUIT     1.135     0  06:13      4.10    1.04    1.00
  GQ11                 CONDUIT     0.143     0  08:00      1.54    0.15    0.37
  GQ12                 CONDUIT     0.168     0  08:00      0.87    0.18    0.64
  GQ13                 CONDUIT     0.112     0  08:00      0.41    0.05    0.58
  GQ14                 CONDUIT     0.055     0  08:00      0.92    0.08    0.18
  GQ15                 CONDUIT     0.144     0  08:00      4.08    0.58    0.50
  GQ16                 CONDUIT     1.238     0  08:00      3.90    0.60    0.42
  GQ17                 CONDUIT     0.268     0  08:00      1.48    0.08    0.39
  GQ18                 CONDUIT     1.054     0  08:00      2.50    4.75    0.79
  GQ19                 CONDUIT     0.357     0  08:00      1.78    0.04    0.30
  GQ20                 CONDUIT     0.078     0  08:00      0.42    0.04    0.42
  GQ21                 CONDUIT     0.288     0  08:00      1.31    0.09    0.45
  GQ22                 CONDUIT     0.292     0  08:00      1.67    0.09    0.27
  GQ23                 CONDUIT     0.527     0  08:00      2.14    0.26    0.35
  GQ24                 CONDUIT     0.825     0  08:00      2.12    0.41    0.72
  GQ25                 CONDUIT     0.499     0  08:00      3.47    0.56    0.51
  GQ26                 CONDUIT     0.377     0  08:00      2.48    0.44    0.53
  GQ27                 CONDUIT     0.579     0  08:00      2.40    0.58    0.80
  GQ28                 CONDUIT     0.234     0  08:00      0.65    0.25    0.67
  GQ29                 CONDUIT     0.776     0  08:00      1.54    0.36    1.00
  GQ30                 CONDUIT     0.824     0  07:25      2.91    1.00    1.00
  GQ31                 CONDUIT     0.413     0  08:00      1.76    0.55    0.77
  GQ32                 CONDUIT     0.656     0  08:00      2.96    1.05    0.77
  GQ33                 CONDUIT     1.434     0  07:45      5.07    1.00    1.00
  GQ34                 CONDUIT     0.300     0  08:00      1.38    0.47    0.74
  GQ35                 CONDUIT     0.550     0  07:28      2.11    1.02    1.00
  GQ36                 CONDUIT     0.948     0  08:00      3.35    1.17    1.00
  GQ37                 CONDUIT     0.353     0  08:00      1.50    0.51    0.77
  GQ38                 CONDUIT     0.164     0  08:00      0.82    0.23    0.67
  GQ39                 CONDUIT     0.640     0  08:00      2.46    0.82    0.87
  GQ40                 CONDUIT     0.469     0  08:00      2.47    0.58    0.64
  GQ41                 CONDUIT     1.069     0  08:00      1.54    0.49    0.82
  GQ42                 CONDUIT     1.359     0  08:40      2.70    1.00    1.00
  GQ43                 CONDUIT     2.312     0  07:36      4.69    1.03    1.00
  GQ44                 CONDUIT     0.946     0  07:39      1.88    1.00    1.00
  GQ45                 CONDUIT     0.619     0  08:00      1.80    0.25    0.67
  GQ46                 CONDUIT     1.068     0  07:50      2.12    1.00    1.00
  GQ47                 CONDUIT     0.125     0  08:00      0.68    0.12    0.62
  GQ48                 CONDUIT     0.125     0  08:00      0.68    0.12    0.62
  GQ49                 CONDUIT     0.484     0  08:00      2.51    0.18    0.64
  GQ50                 CONDUIT     0.139     0  08:00      1.00    0.18    0.50
  GQ51                 CONDUIT     0.563     0  08:00      2.65    0.86    0.70
  GQ52                 CONDUIT     0.408     0  08:00      0.99    0.54    0.76
  GQ53                 CONDUIT     2.225     0  07:58      2.83    1.00    1.00
  GQ54                 CONDUIT     0.302     0  08:00      1.49    0.26    0.67
  GQ55                 CONDUIT     0.226     0  08:00      1.20    0.15    0.63
  GQ56                 CONDUIT     1.969     0  07:10      3.97    1.08    1.00
  GQ57                 CONDUIT     0.428     0  08:00      1.17    0.28    0.68
  GQ58                 CONDUIT     0.892     0  08:00      2.45    0.28    0.68
  GQ59                 CONDUIT     1.203     0  07:43      2.39    1.00    1.00
  GQ60                 CONDUIT     1.484     0  07:50      1.06    0.36    1.00
  GQ61                 CONDUIT     0.194     0  08:00      0.19    0.02    0.55
  GQ62                 CONDUIT     0.405     0  08:00      0.32    0.04    0.57
  GQ63                 CONDUIT     0.926     0  08:00      0.51    0.03    0.56
  GQ64                 CONDUIT     0.066     0  08:00      1.21    0.05    0.25
  GQ65                 CONDUIT     0.028     0  08:00      0.31    0.05    0.36
  GQ66                 CONDUIT     0.115     0  08:00      0.40    0.03    0.56
  GQ67                 CONDUIT     0.607     0  08:00      0.54    0.42    1.00
  GQ68                 CONDUIT     0.560     0  08:00      1.05    0.18    0.64
  GQ69                 CONDUIT     1.048     0  08:00      2.74    0.37    0.71
  GQ70                 CONDUIT     0.367     0  08:00      7.32    0.05    0.16
  GQ71                 CONDUIT     0.447     0  08:00      5.35    0.11    0.22
  GQ72                 CONDUIT     1.842     0  08:00      5.16    0.44    0.46
  GQ73                 CONDUIT     1.325     0  08:00     11.97    0.09    0.20
  GQ74                 CONDUIT     0.236     0  08:00      1.25    0.04    0.29
  GQ75                 CONDUIT     0.298     0  08:00      0.61    0.09    0.60
  GQ76                 CONDUIT     1.906     0  08:00      5.60    0.41    0.45
  GQ77                 CONDUIT     0.000     0  00:00      0.00    0.00    0.21
  GQ78                 CONDUIT     0.827     0  07:42      2.98    0.90    1.00
  GQ79                 CONDUIT     0.233     0  08:00      1.08    0.50    0.73
  GQ80                 CONDUIT     0.294     0  08:07      1.04    0.48    1.00
  GQ81                 CONDUIT     0.307     0  05:01      1.08    1.94    1.00
  GQ82                 CONDUIT     0.403     0  08:00      1.97    0.28    0.68
  GQ83                 CONDUIT     0.434     0  08:00      2.71    0.28    0.55
  GQ84                 CONDUIT     0.899     0  08:00      3.66    0.71    0.81
  GQ85                 CONDUIT     0.211     0  08:00      0.86    0.36    0.81
  GQ86                 CONDUIT     0.119     0  08:00      0.70    0.05    0.58
  GQ87                 CONDUIT     0.042     0  08:00      0.25    0.06    0.58
  GQ88                 CONDUIT     0.292     0  08:00      1.44    0.26    0.67
  GQ89                 CONDUIT     0.241     0  08:00      1.15    0.32    0.69
  GQ90                 CONDUIT     0.245     0  08:00      1.22    0.25    0.67
  GQ91                 CONDUIT     0.206     0  08:00      1.02    0.25    0.67
  GQ92                 CONDUIT     0.488     0  08:00      1.72    0.70    0.57
  GQ93                 CONDUIT     0.520     0  08:06      1.41    0.45    0.75
  GQ94                 CONDUIT     0.956     0  07:51      1.98    1.13    1.00
  GQ95                 CONDUIT     0.134     0  08:00      0.46    0.03    0.56
  GQ96                 CONDUIT     0.435     0  08:00      1.29    0.74    0.64
  GQ97                 CONDUIT     0.243     0  08:00      1.86    0.44    0.47
  GQ98                 CONDUIT     0.215     0  08:00      0.96    0.30    0.74
  GQ99                 CONDUIT     0.440     0  08:00      0.44    0.02    0.55
  GQ100                CONDUIT     0.316     0  08:00      2.76    0.54    0.43
  GQ101                CONDUIT     0.218     0  08:00      1.15    0.16    0.64
  GQ102                CONDUIT     0.860     0  08:00      2.38    0.26    0.67
  GQ103                CONDUIT     0.412     0  08:00      1.72    0.63    0.79
  GQ104                CONDUIT     0.802     0  08:00      3.42    0.58    0.77
  GQ105                CONDUIT     0.315     0  09:21      0.63    1.00    1.00
  GQ106                CONDUIT     0.245     0  08:00      1.22    0.24    0.67
  GQ107                CONDUIT     0.947     0  08:00      3.64    0.85    0.87
  GQ108                CONDUIT     0.829     0  09:01      1.65    1.00    1.00
  GQ109                CONDUIT     0.178     0  08:00      1.25    0.24    0.53
  GQ110                CONDUIT     0.294     0  08:00      0.64    0.04    0.57
  GQ111                CONDUIT     0.265     0  08:00      1.32    0.24    0.67
  GQ112                CONDUIT     0.809     0  08:00      2.81    0.14    0.30
  GQ113                CONDUIT     0.447     0  08:00      3.55    0.34    0.46
  GQ114                CONDUIT     0.268     0  07:55      0.50    0.11    0.64
  GQ115                CONDUIT     0.116     0  08:00      0.89    0.02    0.17
  GQ116                CONDUIT     0.167     0  08:00      0.37    0.02    0.55
  GQ117                CONDUIT     0.591     0  08:00      4.15    0.37    0.33
  GQ118                CONDUIT     0.223     0  08:00      1.61    0.08    0.33
  GQ119                CONDUIT     2.222     0  07:51      4.42    0.97    1.00
  GQ120                CONDUIT     0.000     0  00:00      0.00    0.00    0.50
  GQ121                CONDUIT     0.815     0  08:00      1.62    0.58    1.00
  GQ122                CONDUIT     0.340     0  08:00      1.11    0.06    0.58
  GQ123                CONDUIT     0.227     0  08:00      1.25    0.11    0.61
  GQ124                CONDUIT     0.142     0  08:00      0.93    0.06    0.35
  GQ125                CONDUIT     0.284     0  08:00      1.35    0.32    0.69
  GQ126                CONDUIT     0.350     0  08:00      1.66    0.33    0.70
  GQ127                CONDUIT     0.772     0  07:27      1.69    0.99    1.00
  GQ128                CONDUIT     1.190     0  08:00      2.32    0.26    0.67
  GQ129                CONDUIT     1.313     0  07:42      2.61    1.00    1.00
  GQ130                CONDUIT     1.073     0  07:20      3.79    1.00    1.00
  GQ131                CONDUIT     0.670     0  08:00      2.59    0.78    0.86
  
  
  ***************************
  Flow Classification Summary
  ***************************
  
  -------------------------------------------------------------------------------------
                      Adjusted    ---------- Fraction of Time in Flow Class ---------- 
                       /Actual         Up    Down  Sub   Sup   Up    Down  Norm  Inlet 
  Conduit               Length    Dry  Dry   Dry   Crit  Crit  Crit  Crit  Ltd   Ctrl  
  -------------------------------------------------------------------------------------
  GQ1                     1.00   0.02  0.00  0.00  0.03  0.95  0.00  0.00  0.00  0.00
  GQ2                     1.00   0.02  0.00  0.00  0.05  0.92  0.00  0.00  0.92  0.00
  GQ3                     1.00   0.03  0.00  0.00  0.00  0.97  0.00  0.00  0.16  0.00
  GQ4                     1.00   0.02  0.00  0.00  0.98  0.00  0.00  0.00  0.50  0.00
  GQ5                     1.00   0.02  0.00  0.00  0.98  0.00  0.00  0.00  0.67  0.00
  GQ6                     1.00   0.02  0.00  0.00  0.98  0.00  0.00  0.00  0.92  0.00
  GQ7                     1.00   0.02  0.00  0.00  0.48  0.49  0.00  0.00  0.07  0.00
  GQ8                     1.00   0.02  0.00  0.00  0.98  0.00  0.00  0.00  0.91  0.00
  GQ9                     1.00   0.02  0.00  0.00  0.53  0.44  0.00  0.00  0.92  0.00
  GQ10                    1.00   0.02  0.00  0.00  0.74  0.23  0.00  0.00  0.53  0.00
  GQ11                    1.00   0.02  0.00  0.00  0.16  0.81  0.00  0.00  0.90  0.00
  GQ12                    1.00   0.02  0.00  0.00  0.98  0.00  0.00  0.00  0.92  0.00
  GQ13                    1.00   0.02  0.00  0.00  0.97  0.00  0.00  0.00  0.92  0.00
  GQ14                    1.00   0.02  0.00  0.00  0.98  0.00  0.00  0.00  0.00  0.00
  GQ15                    1.00   0.02  0.00  0.00  0.00  0.97  0.00  0.00  0.01  0.00
  GQ16                    1.00   0.02  0.00  0.00  0.01  0.97  0.00  0.00  0.00  0.00
  GQ17                    1.00   0.02  0.00  0.00  0.90  0.07  0.00  0.00  0.92  0.00
  GQ18                    1.00   0.02  0.00  0.00  0.65  0.33  0.00  0.00  0.11  0.00
  GQ19                    1.00   0.02  0.00  0.00  0.44  0.54  0.00  0.00  0.92  0.00
  GQ20                    1.00   0.02  0.00  0.00  0.98  0.00  0.00  0.00  0.92  0.00
  GQ21                    1.00   0.02  0.00  0.00  0.57  0.41  0.00  0.00  0.92  0.00
  GQ22                    1.00   0.02  0.00  0.00  0.01  0.97  0.00  0.00  0.92  0.00
  GQ23                    1.00   0.02  0.00  0.00  0.02  0.96  0.00  0.00  0.26  0.00
  GQ24                    1.00   0.02  0.00  0.00  0.98  0.00  0.00  0.00  0.92  0.00
  GQ25                    1.00   0.02  0.00  0.00  0.00  0.97  0.00  0.00  0.01  0.00
  GQ26                    1.00   0.02  0.00  0.00  0.00  0.97  0.00  0.00  0.86  0.00
  GQ27                    1.00   0.02  0.00  0.00  0.47  0.50  0.00  0.00  0.67  0.00
  GQ28                    1.00   0.02  0.00  0.00  0.98  0.00  0.00  0.00  0.92  0.00
  GQ29                    1.00   0.02  0.00  0.00  0.98  0.00  0.00  0.00  0.24  0.00
  GQ30                    1.00   0.02  0.00  0.00  0.96  0.02  0.00  0.00  0.22  0.00
  GQ31                    1.00   0.02  0.00  0.00  0.98  0.00  0.00  0.00  0.85  0.00
  GQ32                    1.00   0.02  0.00  0.00  0.01  0.97  0.00  0.00  0.00  0.00
  GQ33                    1.00   0.02  0.00  0.00  0.75  0.23  0.00  0.00  0.65  0.00
  GQ34                    1.00   0.02  0.00  0.00  0.98  0.00  0.00  0.00  0.92  0.00
  GQ35                    1.00   0.02  0.00  0.00  0.42  0.56  0.00  0.00  0.34  0.00
  GQ36                    1.00   0.02  0.00  0.00  0.13  0.84  0.00  0.00  0.80  0.00
  GQ37                    1.00   0.02  0.00  0.00  0.98  0.00  0.00  0.00  0.68  0.00
  GQ38                    1.00   0.02  0.00  0.00  0.97  0.00  0.00  0.00  0.88  0.00
  GQ39                    1.00   0.02  0.00  0.00  0.96  0.02  0.00  0.00  0.68  0.00
  GQ40                    1.00   0.02  0.00  0.00  0.02  0.96  0.00  0.00  0.92  0.00
  GQ41                    1.00   0.02  0.00  0.00  0.98  0.00  0.00  0.00  0.66  0.00
  GQ42                    1.00   0.02  0.00  0.00  0.98  0.00  0.00  0.00  0.58  0.00
  GQ43                    1.00   0.02  0.00  0.00  0.21  0.76  0.00  0.00  0.77  0.00
  GQ44                    1.00   0.02  0.00  0.00  0.98  0.00  0.00  0.00  0.48  0.00
  GQ45                    1.00   0.02  0.00  0.00  0.63  0.35  0.00  0.00  0.92  0.00
  GQ46                    1.00   0.02  0.00  0.00  0.62  0.35  0.00  0.00  0.46  0.00
  GQ47                    1.00   0.02  0.00  0.00  0.98  0.00  0.00  0.00  0.92  0.00
  GQ48                    1.00   0.02  0.00  0.00  0.98  0.00  0.00  0.00  0.92  0.00
  GQ49                    1.00   0.02  0.00  0.00  0.54  0.44  0.00  0.00  0.92  0.00
  GQ50                    1.00   0.02  0.00  0.00  0.98  0.00  0.00  0.00  0.92  0.00
  GQ51                    1.00   0.02  0.00  0.00  0.00  0.97  0.00  0.00  0.57  0.00
  GQ52                    1.00   0.02  0.00  0.00  0.98  0.00  0.00  0.00  0.71  0.00
  GQ53                    1.00   0.02  0.00  0.00  0.98  0.00  0.00  0.00  0.59  0.00
  GQ54                    1.00   0.02  0.00  0.00  0.98  0.00  0.00  0.00  0.92  0.00
  GQ55                    1.00   0.02  0.00  0.00  0.98  0.00  0.00  0.00  0.92  0.00
  GQ56                    1.00   0.02  0.00  0.00  0.43  0.55  0.00  0.00  0.45  0.00
  GQ57                    1.00   0.02  0.00  0.00  0.98  0.00  0.00  0.00  0.92  0.00
  GQ58                    1.00   0.02  0.00  0.00  0.82  0.15  0.00  0.00  0.92  0.00
  GQ59                    1.00   0.02  0.00  0.00  0.98  0.00  0.00  0.00  0.59  0.00
  GQ60                    1.00   0.02  0.00  0.00  0.98  0.00  0.00  0.00  0.31  0.00
  GQ61                    1.00   0.02  0.00  0.00  0.98  0.00  0.00  0.00  0.92  0.00
  GQ62                    1.00   0.02  0.00  0.00  0.98  0.00  0.00  0.00  0.92  0.00
  GQ63                    1.00   0.02  0.00  0.00  0.97  0.01  0.00  0.00  0.92  0.00
  GQ64                    1.00   0.02  0.00  0.00  0.16  0.81  0.00  0.00  0.92  0.00
  GQ65                    1.00   0.02  0.00  0.00  0.98  0.00  0.00  0.00  0.92  0.00
  GQ66                    1.00   0.02  0.00  0.00  0.98  0.00  0.00  0.00  0.92  0.00
  GQ67                    1.00   0.02  0.00  0.00  0.98  0.00  0.00  0.00  0.20  0.00
  GQ68                    1.00   0.02  0.00  0.00  0.98  0.00  0.00  0.00  0.92  0.00
  GQ69                    1.00   0.02  0.00  0.00  0.54  0.43  0.00  0.00  0.92  0.00
  GQ70                    1.00   0.03  0.00  0.00  0.00  0.97  0.00  0.00  0.07  0.00
  GQ71                    1.00   0.02  0.00  0.00  0.00  0.97  0.00  0.00  0.11  0.00
  GQ72                    1.00   0.02  0.00  0.00  0.00  0.98  0.00  0.00  0.18  0.00
  GQ73                    1.00   0.03  0.00  0.00  0.00  0.97  0.00  0.00  0.07  0.00
  GQ74                    1.00   0.02  0.00  0.00  0.94  0.04  0.00  0.00  0.92  0.00
  GQ75                    1.00   0.02  0.00  0.00  0.97  0.00  0.00  0.00  0.92  0.00
  GQ76                    1.00   0.02  0.00  0.00  0.00  0.97  0.00  0.00  0.19  0.00
  GQ77                    1.00   0.02  0.98  0.00  0.00  0.00  0.00  0.00  0.00  0.00
  GQ78                    1.00   0.02  0.00  0.00  0.69  0.28  0.00  0.00  0.66  0.00
  GQ79                    1.00   0.02  0.00  0.00  0.98  0.00  0.00  0.00  0.21  0.00
  GQ80                    1.00   0.02  0.00  0.00  0.98  0.00  0.00  0.00  0.56  0.00
  GQ81                    1.00   0.02  0.00  0.00  0.98  0.00  0.00  0.00  0.00  0.00
  GQ82                    1.00   0.02  0.00  0.00  0.86  0.11  0.00  0.00  0.92  0.00
  GQ83                    1.00   0.02  0.00  0.00  0.00  0.98  0.00  0.00  0.92  0.00
  GQ84                    1.00   0.02  0.00  0.00  0.04  0.93  0.00  0.00  0.92  0.00
  GQ85                    1.00   0.02  0.00  0.00  0.98  0.00  0.00  0.00  0.57  0.00
  GQ86                    1.00   0.02  0.00  0.00  0.97  0.00  0.00  0.00  0.92  0.00
  GQ87                    1.00   0.02  0.00  0.00  0.98  0.00  0.00  0.00  0.92  0.00
  GQ88                    1.00   0.02  0.00  0.00  0.98  0.00  0.00  0.00  0.92  0.00
  GQ89                    1.00   0.02  0.00  0.00  0.98  0.00  0.00  0.00  0.92  0.00
  GQ90                    1.00   0.02  0.00  0.00  0.96  0.01  0.00  0.00  0.92  0.00
  GQ91                    1.00   0.02  0.00  0.00  0.98  0.00  0.00  0.00  0.92  0.00
  GQ92                    1.00   0.02  0.00  0.00  0.90  0.07  0.00  0.00  0.00  0.00
  GQ93                    1.00   0.02  0.00  0.00  0.98  0.00  0.00  0.00  0.89  0.00
  GQ94                    1.00   0.02  0.00  0.00  0.53  0.44  0.00  0.00  0.02  0.00
  GQ95                    1.00   0.02  0.00  0.00  0.98  0.00  0.00  0.00  0.92  0.00
  GQ96                    1.00   0.02  0.00  0.00  0.98  0.00  0.00  0.00  0.34  0.00
  GQ97                    1.00   0.02  0.00  0.00  0.00  0.97  0.00  0.00  0.46  0.00
  GQ98                    1.00   0.02  0.00  0.00  0.98  0.00  0.00  0.00  0.64  0.00
  GQ99                    1.00   0.02  0.00  0.00  0.98  0.00  0.00  0.00  0.92  0.00
  GQ100                   1.00   0.02  0.00  0.00  0.00  0.97  0.00  0.00  0.00  0.00
  GQ101                   1.00   0.02  0.00  0.00  0.97  0.01  0.00  0.00  0.92  0.00
  GQ102                   1.00   0.02  0.00  0.00  0.83  0.15  0.00  0.00  0.92  0.00
  GQ103                   1.00   0.02  0.00  0.00  0.98  0.00  0.00  0.00  0.92  0.00
  GQ104                   1.00   0.02  0.00  0.00  0.48  0.50  0.00  0.00  0.92  0.00
  GQ105                   1.00   0.02  0.00  0.00  0.98  0.00  0.00  0.00  0.18  0.00
  GQ106                   1.00   0.02  0.00  0.00  0.97  0.01  0.00  0.00  0.92  0.00
  GQ107                   1.00   0.02  0.00  0.00  0.44  0.54  0.00  0.00  0.84  0.00
  GQ108                   1.00   0.02  0.00  0.00  0.98  0.00  0.00  0.00  0.25  0.00
  GQ109                   1.00   0.02  0.00  0.00  0.94  0.04  0.00  0.00  0.90  0.00
  GQ110                   1.00   0.02  0.00  0.00  0.97  0.01  0.00  0.00  0.92  0.00
  GQ111                   1.00   0.02  0.00  0.00  0.97  0.01  0.00  0.00  0.92  0.00
  GQ112                   1.00   0.02  0.00  0.00  0.00  0.97  0.00  0.00  0.92  0.00
  GQ113                   1.00   0.02  0.00  0.00  0.00  0.98  0.00  0.00  0.89  0.00
  GQ114                   1.00   0.02  0.00  0.00  0.98  0.00  0.00  0.00  0.23  0.00
  GQ115                   1.00   0.02  0.00  0.00  0.96  0.01  0.00  0.00  0.92  0.00
  GQ116                   1.00   0.02  0.00  0.00  0.98  0.00  0.00  0.00  0.92  0.00
  GQ117                   1.00   0.02  0.00  0.00  0.00  0.97  0.00  0.00  0.00  0.00
  GQ118                   1.00   0.02  0.00  0.00  0.18  0.79  0.00  0.00  0.92  0.00
  GQ119                   1.00   0.02  0.00  0.00  0.82  0.16  0.00  0.00  0.65  0.00
  GQ120                   1.00   0.02  0.11  0.00  0.87  0.00  0.00  0.00  0.00  0.00
  GQ121                   1.00   0.02  0.00  0.00  0.98  0.00  0.00  0.00  0.22  0.00
  GQ122                   1.00   0.02  0.00  0.00  0.89  0.09  0.00  0.00  0.91  0.00
  GQ123                   1.00   0.02  0.00  0.00  0.89  0.09  0.00  0.00  0.92  0.00
  GQ124                   1.00   0.02  0.00  0.00  0.97  0.00  0.00  0.00  0.92  0.00
  GQ125                   1.00   0.02  0.00  0.00  0.97  0.01  0.00  0.00  0.92  0.00
  GQ126                   1.00   0.02  0.00  0.00  0.98  0.00  0.00  0.00  0.92  0.00
  GQ127                   1.00   0.02  0.00  0.00  0.98  0.00  0.00  0.00  0.49  0.00
  GQ128                   1.00   0.02  0.00  0.00  0.40  0.57  0.00  0.00  0.83  0.00
  GQ129                   1.00   0.02  0.00  0.00  0.98  0.00  0.00  0.00  0.53  0.00
  GQ130                   1.00   0.02  0.00  0.00  0.89  0.09  0.00  0.00  0.53  0.00
  GQ131                   1.00   0.02  0.00  0.00  0.56  0.41  0.00  0.00  0.67  0.00
  
  
  *************************
  Conduit Surcharge Summary
  *************************
  
  ----------------------------------------------------------------------------
                                                           Hours        Hours 
                         --------- Hours Full --------   Above Full   Capacity
  Conduit                Both Ends  Upstream  Dnstream   Normal Flow   Limited
  ----------------------------------------------------------------------------
  GQ4                         4.18      4.18      8.22      0.01         0.01
  GQ5                         0.31      0.31      7.98      0.01         0.01
  GQ6                         0.01      0.01      0.31      0.01         0.01
  GQ7                         3.18      3.18      3.88      0.01         0.01
  GQ8                         0.01      0.01      3.18      0.01         0.01
  GQ9                         0.01      0.01      8.70      0.01         0.01
  GQ10                        4.45      4.45      8.88      0.08         0.01
  GQ12                        0.01      0.01      7.40      0.01         0.01
  GQ13                        0.01      0.01      3.85      0.01         0.01
  GQ18                        0.01      0.01      6.69      7.23         0.01
  GQ24                        0.01      0.01      8.49      0.01         0.01
  GQ27                        0.01      0.01      7.52      0.01         0.01
  GQ28                        0.01      0.01      8.08      0.01         0.01
  GQ29                        7.41      7.41      8.08      0.01         0.01
  GQ30                        7.52      7.52      8.29      0.01         0.01
  GQ31                        0.01      0.01      8.98      0.01         0.01
  GQ32                        0.01      2.57      0.01      0.75         0.01
  GQ33                        2.57      2.57      8.98      0.01         0.01
  GQ34                        0.01      0.01      2.57      0.01         0.01
  GQ35                        0.82      0.82      2.57      0.05         0.01
  GQ36                        0.71      0.82      0.71      1.02         0.71
  GQ37                        0.01      0.01      8.61      0.01         0.01
  GQ38                        0.01      0.01      8.61      0.01         0.01
  GQ39                        0.01      0.01      7.40      0.01         0.01
  GQ41                        0.01      0.01      8.00      0.01         0.01
  GQ42                        3.13      3.13      8.18      0.01         0.01
  GQ43                        1.37      1.37      3.13      0.21         0.01
  GQ44                        4.15      4.15      6.69      0.01         0.01
  GQ45                        0.01      0.01      3.63      0.01         0.01
  GQ46                        3.63      3.63      4.15      0.01         0.01
  GQ47                        0.01      0.01      8.11      0.01         0.01
  GQ48                        0.01      0.01      8.33      0.01         0.01
  GQ49                        0.01      0.01      8.33      0.01         0.01
  GQ52                        0.01      0.01      7.41      0.01         0.01
  GQ53                        3.01      3.01      8.31      0.01         0.01
  GQ54                        0.01      0.01      8.35      0.01         0.01
  GQ55                        0.01      0.01      8.35      0.01         0.01
  GQ56                        2.92      2.92      3.18      0.18         0.05
  GQ57                        0.01      0.01      2.92      0.01         0.01
  GQ58                        0.01      0.01      7.75      0.01         0.01
  GQ59                        3.13      3.13      7.75      0.01         0.01
  GQ60                        0.42      0.42      3.61      0.01         0.01
  GQ61                        0.01      0.01      6.66      0.01         0.01
  GQ62                        0.01      0.01      6.87      0.01         0.01
  GQ63                        0.01      0.01      7.07      0.01         0.01
  GQ66                        0.01      0.01      7.06      0.01         0.01
  GQ67                        6.71      6.71      6.88      0.01         0.01
  GQ68                        0.01      0.01      7.38      0.01         0.01
  GQ69                        0.01      0.01      7.98      0.01         0.01
  GQ75                        0.01      0.01      7.35      0.01         0.01
  GQ78                        0.64      0.64      8.50      0.01         0.01
  GQ79                        0.01      0.01      8.50      0.01         0.01
  GQ80                        0.64      0.64      7.22      0.01         0.01
  GQ81                        7.22      7.22      7.40      6.66         2.41
  GQ82                        0.01      0.01      7.40      0.01         0.01
  GQ84                        0.01      0.01      3.15      0.01         0.01
  GQ85                        0.01      0.01      8.93      0.01         0.01
  GQ86                        0.01      0.01      8.05      0.01         0.01
  GQ87                        0.01      0.01      8.05      0.01         0.01
  GQ88                        0.01      0.01      8.22      0.01         0.01
  GQ89                        0.01      0.01      7.51      0.01         0.01
  GQ90                        0.01      0.01      7.25      0.01         0.01
  GQ91                        0.01      0.01      7.74      0.01         0.01
  GQ93                        0.01      0.01      1.16      0.01         0.01
  GQ94                        1.16      1.16      1.37      0.97         0.59
  GQ95                        0.01      0.01      8.25      0.01         0.01
  GQ98                        0.01      0.01      7.97      0.01         0.01
  GQ99                        0.01      0.01      6.96      0.01         0.01
  GQ101                       0.01      0.01      7.73      0.01         0.01
  GQ102                       0.01      0.01      8.08      0.01         0.01
  GQ103                       0.01      0.01      8.36      0.01         0.01
  GQ104                       0.01      0.01      8.36      0.01         0.01
  GQ105                       7.95      7.95      8.08      7.27         0.01
  GQ106                       0.01      0.01      8.07      0.01         0.01
  GQ107                       0.01      0.01      8.07      0.01         0.01
  GQ108                       6.78      6.78      7.95      0.01         0.01
  GQ110                       0.01      0.01      7.35      0.01         0.01
  GQ111                       0.01      0.01      7.73      0.01         0.01
  GQ114                       0.01      0.01      8.24      0.01         0.01
  GQ116                       0.01      0.01      7.97      0.01         0.01
  GQ119                       2.69      2.69      8.47      0.01         0.01
  GQ120                       0.01      0.01      8.31      0.01         0.01
  GQ121                       7.99      7.99      8.47      0.01         0.01
  GQ122                       0.01      0.01      7.99      0.01         0.01
  GQ123                       0.01      0.01      8.06      0.01         0.01
  GQ125                       0.01      0.01      7.74      0.01         0.01
  GQ126                       0.01      0.01      7.73      0.01         0.01
  GQ127                       1.37      1.37      2.69      0.01         0.01
  GQ128                       0.01      0.01      1.20      0.01         0.01
  GQ129                       3.88      3.88      8.49      0.01         0.01
  GQ130                       4.05      4.05      9.49      0.01         0.01
  GQ131                       0.01      0.01      9.01      0.01         0.01
  

  Analysis begun on:  Wed Mar 29 19:14:25 2023
  Analysis ended on:  Wed Mar 29 19:14:47 2023
  Total elapsed time: 00:00:22