
  OWA STORM WATER MANAGEMENT MODEL - VERSION v5.1.14 (OWA 2022-07-31)
  --------------------------------------------------------------

  INP file created by DSDAConvertToSwmmTools 
  version 0.0.1 EcoVista 
  Title/Notes: 
  
  
  *********************************************************
  NOTE: The summary statistics displayed in this report are
  based on results found at every computational time step,  
  not just on results from each reporting time step.
  *********************************************************
  
  ****************
  Analysis Options
  ****************
  Flow Units ............... CMS
  Process Models:
    Rainfall/Runoff ........ YES
    RDII ................... NO
    Snowmelt ............... NO
    Groundwater ............ NO
    Flow Routing ........... YES
    Ponding Allowed ........ NO
    Water Quality .......... NO
  Infiltration Method ...... GREEN_AMPT
  Flow Routing Method ...... DYNWAVE
  Surcharge Method ......... EXTRAN
  Starting Date ............ 07/15/2020 00:00:00
  Ending Date .............. 07/15/2020 17:00:00
  Antecedent Dry Days ...... 0.0
  Report Time Step ......... 00:30:00
  Wet Time Step ............ 00:05:00
  Dry Time Step ............ 01:00:00
  Routing Time Step ........ 30.00 sec
  Variable Time Step ....... YES
  Maximum Trials ........... 8
  Number of Threads ........ 1
  Head Tolerance ........... 0.001500 m
  
  
  **************************        Volume         Depth
  Runoff Quantity Continuity     hectare-m            mm
  **************************     ---------       -------
  Total Precipitation ......       207.418        51.900
  Evaporation Loss .........         5.935         1.485
  Infiltration Loss ........        55.431        13.870
  Surface Runoff ...........       138.739        34.715
  Final Storage ............         7.429         1.859
  Continuity Error (%) .....        -0.056
  
  
  **************************        Volume        Volume
  Flow Routing Continuity        hectare-m      10^6 ltr
  **************************     ---------     ---------
  Dry Weather Inflow .......         0.000         0.000
  Wet Weather Inflow .......       138.663      1386.648
  Groundwater Inflow .......         0.000         0.000
  RDII Inflow ..............         0.000         0.000
  External Inflow ..........         0.000         0.000
  External Outflow .........        13.006       130.065
  Flooding Loss ............       124.171      1241.725
  Evaporation Loss .........         0.000         0.000
  Exfiltration Loss ........         0.000         0.000
  Initial Stored Volume ....         0.000         0.000
  Final Stored Volume ......         1.323        13.226
  Continuity Error (%) .....         0.118
  
  
  *************************
  Highest Continuity Errors
  *************************
  Node jd51 (3.93%)
  Node jd64 (3.19%)
  Node jd59 (3.10%)
  Node jd31 (2.94%)
  Node jd55 (2.72%)
  
  
  ***************************
  Time-Step Critical Elements
  ***************************
  Link GQ73 (96.41%)
  
  
  ********************************
  Highest Flow Instability Indexes
  ********************************
  Link GQ67 (27)
  Link GQ29 (11)
  Link GQ114 (6)
  Link GQ46 (5)
  Link GQ121 (4)
  
  
  *************************
  Routing Time Step Summary
  *************************
  Minimum Time Step           :     1.34 sec
  Average Time Step           :     8.08 sec
  Maximum Time Step           :    30.00 sec
  Percent in Steady State     :    -0.00
  Average Iterations per Step :     3.77
  Percent Not Converging      :    12.01
  
  
  ***************************
  Subcatchment Runoff Summary
  ***************************
  
  ------------------------------------------------------------------------------------------------------------------------------
                            Total      Total      Total      Total     Imperv       Perv      Total       Total     Peak  Runoff
                           Precip      Runon       Evap      Infil     Runoff     Runoff     Runoff      Runoff   Runoff   Coeff
  Subcatchment                 mm         mm         mm         mm         mm         mm         mm    10^6 ltr      CMS
  ------------------------------------------------------------------------------------------------------------------------------
  1                         51.90       0.00       0.89      29.08      20.97       0.00      20.97        8.30     0.47   0.404
  2                         51.90       0.00       1.60      11.05      37.13       0.00      37.13       33.57     1.92   0.715
  3                         51.90       0.00       1.66       9.47      38.77       0.00      38.77       15.51     0.89   0.747
  4                         51.90       0.00       1.71       8.13      40.11       0.00      40.11        3.37     0.19   0.773
  5                         51.90       0.00       1.51      13.22      35.46       0.00      35.46        4.39     0.25   0.683
  6                         51.90       0.00       1.45      14.87      33.99       0.00      33.99        3.16     0.18   0.655
  7                         51.90       0.00       1.51      13.28      35.20       0.00      35.20       15.35     0.88   0.678
  8                         51.90       0.00       1.91       2.90      44.73       0.00      44.73        6.23     0.36   0.862
  9                         51.90       0.00       1.97       1.45      46.10       0.00      46.10        5.39     0.31   0.888
  10                        51.90       0.00       1.70       8.44      39.73       0.00      39.73        8.95     0.51   0.765
  11                        51.90       0.00       1.83       4.96      42.82       0.00      42.82       21.23     1.22   0.825
  12                        51.90       0.00       1.44      14.92      33.81       0.00      33.81       16.50     0.94   0.651
  13                        51.90       0.00       1.81       5.60      42.26       0.00      42.26       19.11     1.09   0.814
  14                        51.90       0.00       1.81       5.66      42.30       0.00      42.30        7.98     0.46   0.815
  15                        51.90       0.00       1.67       9.13      39.08       0.00      39.08       13.21     0.76   0.753
  16                        51.90       0.00       1.73       7.54      40.49       0.00      40.49       11.96     0.68   0.780
  17                        51.90       0.00       1.62      10.36      37.95       0.00      37.95       15.88     0.91   0.731
  18                        51.90       0.00       1.87       4.08      43.61       0.00      43.61       18.01     1.03   0.840
  19                        51.90       0.00       1.86       4.27      43.42       0.00      43.42        9.76     0.56   0.837
  20                        51.90       0.00       1.85       4.56      43.02       0.00      43.02       23.09     1.32   0.829
  21                        51.90       0.00       1.97       1.53      45.92       0.00      45.92       14.41     0.83   0.885
  22                        51.90       0.00       1.93       2.45      45.05       0.00      45.05        5.54     0.32   0.868
  23                        51.90       0.00       1.78       6.35      41.50       0.00      41.50       23.76     1.36   0.800
  24                        51.90       0.00       1.72       7.92      40.05       0.00      40.05        7.10     0.41   0.772
  25                        51.90       0.00       1.84       4.87      42.98       0.00      42.98        8.70     0.50   0.828
  26                        51.90       0.00       1.56      11.84      36.44       0.00      36.44       12.79     0.73   0.702
  27                        51.90       0.00       1.87       3.89      43.64       0.00      43.64       18.44     1.06   0.841
  28                        51.90       0.00       1.91       2.86      44.64       0.00      44.64       21.10     1.21   0.860
  29                        51.90       0.00       1.71       8.05      40.12       0.00      40.12        9.37     0.54   0.773
  30                        51.90       0.00       1.96       1.75      45.93       0.00      45.93        3.29     0.19   0.885
  31                        51.90       0.00       1.98       1.09      46.36       0.00      46.36       10.22     0.59   0.893
  32                        51.90       0.00       1.94       2.31      45.22       0.00      45.22       19.54     1.12   0.871
  33                        51.90       0.00       1.96       1.69      45.75       0.00      45.75       16.12     0.92   0.882
  34                        51.90       0.00       1.82       5.26      42.57       0.00      42.57       12.48     0.71   0.820
  35                        51.90       0.00       1.87       3.91      43.77       0.00      43.77       18.15     1.04   0.843
  36                        51.90       0.00       1.54      12.36      36.17       0.00      36.17       14.23     0.81   0.697
  37                        51.90       0.00       1.92       2.80      44.77       0.00      44.77        9.94     0.57   0.863
  38                        51.90       0.00       1.80       5.88      42.02       0.00      42.02       16.03     0.92   0.810
  39                        51.90       0.00       1.62      10.32      38.02       0.00      38.02       16.05     0.92   0.733
  40                        51.90       0.00       1.81       5.61      42.25       0.00      42.25        9.66     0.55   0.814
  41                        51.90       0.00       1.85       4.57      43.27       0.00      43.27        8.53     0.49   0.834
  42                        51.90       0.00       1.85       4.61      43.01       0.00      43.01       10.62     0.61   0.829
  43                        51.90       0.00       1.55      12.14      36.25       0.00      36.25       28.66     1.64   0.699
  44                        51.90       0.00       1.66       9.46      38.66       0.00      38.66       18.69     1.07   0.745
  45                        51.90       0.00       1.56      12.04      36.39       0.00      36.39       26.33     1.51   0.701
  46                        51.90       0.00       1.50      13.41      35.26       0.00      35.26       17.63     1.01   0.679
  47                        51.90       0.00       1.58      11.48      36.89       0.00      36.89       43.01     2.46   0.711
  48                        51.90       0.00       1.89       3.59      43.88       0.00      43.88       25.46     1.46   0.845
  49                        51.90       0.00       1.73       7.69      40.18       0.00      40.18       27.20     1.56   0.774
  50                        51.90       0.00       1.91       2.92      44.36       0.00      44.36       17.43     1.00   0.855
  51                        51.90       0.00       1.83       5.04      42.48       0.00      42.48        7.95     0.46   0.819
  52                        51.90       0.00       0.89      29.12      20.98       0.00      20.98       21.53     1.22   0.404
  53                        51.90       0.00       1.29      18.90      30.28       0.00      30.28       32.25     1.84   0.584
  54                        51.90       0.00       1.59      11.18      37.22       0.00      37.22        9.08     0.52   0.717
  55                        51.90       0.00       0.91      28.58      21.46       0.00      21.46       16.93     0.96   0.413
  56                        51.90       0.00       0.34      43.11       8.18       0.00       8.18        6.66     0.37   0.158
  57                        51.90       0.00       1.80       5.78      41.92       0.00      41.92       34.83     2.00   0.808
  58                        51.90       0.00       1.67       9.17      39.04       0.00      39.04        6.43     0.37   0.752
  59                        51.90       0.00       1.63      10.19      38.23       0.00      38.23        4.87     0.28   0.737
  60                        51.90       0.00       0.61      36.27      14.45       0.00      14.45        4.14     0.23   0.278
  61                        51.90       0.00       0.95      27.59      22.27       0.00      22.27        8.39     0.48   0.429
  62                        51.90       0.00       1.32      18.06      30.90       0.00      30.90       36.21     2.07   0.595
  63                        51.90       0.00       1.80       5.72      41.88       0.00      41.88       80.99     4.64   0.807
  64                        51.90       0.00       1.35      17.45      31.58       0.00      31.58        6.78     0.39   0.609
  65                        51.90       0.00       1.83       5.06      42.50       0.00      42.50       28.58     1.64   0.819
  66                        51.90       0.00       1.44      15.01      33.62       0.00      33.62        8.57     0.49   0.648
  67                        51.90       0.00       1.35      17.42      31.65       0.00      31.65       10.23     0.58   0.610
  68                        51.90       0.00       1.61      10.54      37.83       0.00      37.83        4.20     0.24   0.729
  69                        51.90       0.00       0.95      27.62      22.42       0.00      22.42        7.17     0.41   0.432
  70                        51.90       0.00       1.33      17.74      31.23       0.00      31.23       25.69     1.47   0.602
  71                        51.90       0.00       1.65       9.70      38.59       0.00      38.59        4.73     0.27   0.743
  72                        51.90       0.00       1.74       7.41      40.67       0.00      40.67        5.07     0.29   0.784
  73                        51.90       0.00       1.57      11.59      36.94       0.00      36.94        6.14     0.35   0.712
  74                        51.90       0.00       1.50      13.48      35.20       0.00      35.20        7.58     0.43   0.678
  75                        51.90       0.00       1.67       9.19      39.06       0.00      39.06        5.63     0.32   0.753
  76                        51.90       0.00       1.75       6.97      41.11       0.00      41.11        3.98     0.23   0.792
  77                        51.90       0.00       1.87       3.99      43.74       0.00      43.74        4.73     0.27   0.843
  78                        51.90       0.00       1.80       5.68      42.19       0.00      42.19        4.64     0.27   0.813
  79                        51.90       0.00       0.79      31.63      18.69       0.00      18.69       19.82     1.12   0.360
  80                        51.90       0.00       1.49      13.69      34.84       0.00      34.84       21.81     1.25   0.671
  81                        51.90       0.00       1.52      13.09      35.38       0.00      35.38       15.42     0.88   0.682
  82                        51.90       0.00       1.45      14.74      33.89       0.00      33.89       31.08     1.78   0.653
  83                        51.90       0.00       1.81       5.44      42.47       0.00      42.47        5.19     0.30   0.818
  84                        51.90       0.00       1.71       8.06      40.03       0.00      40.03        4.78     0.27   0.771
  85                        51.90       0.00       2.01       0.39      47.08       0.00      47.08        4.38     0.25   0.907
  86                        51.90       0.00       1.86       4.38      43.40       0.00      43.40        6.39     0.37   0.836
  87                        51.90       0.00       1.98       1.11      46.29       0.00      46.29        6.09     0.35   0.892
  88                        51.90       0.00       1.77       6.47      41.54       0.00      41.54        3.98     0.23   0.800
  89                        51.90       0.00       1.86       4.17      43.62       0.00      43.62        8.40     0.48   0.840
  90                        51.90       0.00       2.03       0.01      47.50       0.00      47.50        0.55     0.03   0.915
  91                        51.90       0.00       1.69       8.70      39.28       0.00      39.28        8.56     0.49   0.757
  92                        51.90       0.00       1.87       4.04      43.71       0.00      43.71        5.46     0.31   0.842
  93                        51.90       0.00       1.52      12.89      35.64       0.00      35.64       18.24     1.04   0.687
  94                        51.90       0.00       1.37      16.81      32.28       0.00      32.28        2.26     0.13   0.622
  95                        51.90       0.00       2.02       0.06      47.38       0.00      47.38        1.03     0.06   0.913
  96                        51.90       0.00       1.63      10.05      38.30       0.00      38.30        4.68     0.27   0.738
  97                        51.90       0.00       1.98       1.10      46.39       0.00      46.39        4.61     0.26   0.894
  98                        51.90       0.00       1.64       9.80      38.53       0.00      38.53        4.75     0.27   0.742
  99                        51.90       0.00       0.81      31.05      19.25       0.00      19.25        7.14     0.40   0.371
  100                       51.90       0.00       0.91      28.72      21.39       0.00      21.39        5.49     0.31   0.412
  101                       51.90       0.00       0.93      28.15      21.88       0.00      21.88       10.72     0.61   0.421
  102                       51.90       0.00       1.51      13.20      35.40       0.00      35.40        8.63     0.49   0.682
  103                       51.90       0.00       0.51      38.96      12.00       0.00      12.00        4.36     0.25   0.231
  104                       51.90       0.00       0.34      43.15       8.11       0.00       8.11        7.86     0.44   0.156
  105                       51.90       0.00       1.67       9.22      39.07       0.00      39.07        5.11     0.29   0.753
  106                       51.90       0.00       0.90      28.78      21.30       0.00      21.30        5.20     0.30   0.410
  
  
  ******************
  Node Depth Summary
  ******************
  
  ---------------------------------------------------------------------------------
                                 Average  Maximum  Maximum  Time of Max    Reported
                                   Depth    Depth      HGL   Occurrence   Max Depth
  Node                 Type       Meters   Meters   Meters  days hr:min      Meters
  ---------------------------------------------------------------------------------
  jd1                  JUNCTION     0.11     0.19   273.19     0  05:00        0.19
  jd2                  JUNCTION     0.46     3.00   270.00     0  04:24        1.73
  jd3                  JUNCTION     2.81     3.00   266.00     0  03:12        3.00
  jd4                  JUNCTION     1.47     3.00   270.00     0  03:31        3.00
  jd5                  JUNCTION     0.08     0.13   274.13     0  05:00        0.13
  jd6                  JUNCTION     0.10     0.17   275.17     0  05:00        0.17
  jd7                  JUNCTION     0.32     0.48   264.58     0  05:00        0.48
  jd8                  JUNCTION     1.87     3.00   267.00     0  03:16        3.00
  jd9                  JUNCTION     1.51     3.00   268.00     0  03:21        3.00
  jd10                 JUNCTION     2.82     3.00   273.00     0  03:07        3.00
  jd11                 JUNCTION     0.08     0.15   282.15     0  05:00        0.15
  jd12                 JUNCTION     2.83     3.00   272.00     0  03:03        3.00
  jd13                 JUNCTION     0.10     0.18   289.18     0  05:00        0.18
  jd14                 JUNCTION     0.24     0.48   280.48     0  05:00        0.48
  jd15                 JUNCTION     0.24     0.44   278.44     0  05:00        0.44
  jd16                 JUNCTION     0.26     0.48   274.48     0  05:00        0.48
  jd17                 JUNCTION     2.27     3.00   278.80     0  03:20        3.00
  jd18                 JUNCTION     0.37     3.00   282.00     0  04:49        1.68
  jd19                 JUNCTION     1.17     3.00   270.00     0  03:26        3.00
  jd20                 JUNCTION     0.19     0.29   273.29     0  05:00        0.29
  jd21                 JUNCTION     2.81     3.00   273.00     0  03:11        3.00
  jd22                 JUNCTION     1.71     3.00   275.00     0  03:16        3.00
  jd23                 JUNCTION     0.20     0.39   278.39     0  05:00        0.39
  jd24                 JUNCTION     0.12     0.21   285.21     0  05:00        0.21
  jd25                 JUNCTION     0.20     0.37   279.37     0  05:00        0.37
  jd26                 JUNCTION     0.24     0.50   285.50     0  05:00        0.50
  jd27                 JUNCTION     0.19     0.34   291.34     0  05:00        0.34
  jd28                 JUNCTION     2.84     3.00   290.00     0  02:54        3.00
  jd29                 JUNCTION     0.09     0.15   299.15     0  05:00        0.15
  jd30                 JUNCTION     0.12     0.21   290.21     0  05:00        0.21
  jd31                 JUNCTION     1.01     3.00   275.00     0  03:22        1.32
  jd32                 JUNCTION     2.83     3.00   275.00     0  03:00        3.00
  jd33                 JUNCTION     0.17     0.30   289.30     0  05:00        0.30
  jd34                 JUNCTION     0.19     0.36   294.36     0  05:00        0.36
  jd35                 JUNCTION     2.86     3.00   292.00     0  02:43        3.00
  jd36                 JUNCTION     0.76     3.00   302.00     0  04:10        3.00
  jd37                 JUNCTION     0.74     3.00   306.00     0  04:12        3.00
  jd38                 JUNCTION     0.34     0.69   297.69     0  05:00        0.69
  jd39                 JUNCTION     2.81     3.00   297.00     0  03:12        3.00
  jd40                 JUNCTION     1.04     3.00   302.00     0  03:39        3.00
  jd41                 JUNCTION     2.78     3.00   296.00     0  03:28        3.00
  jd42                 JUNCTION     0.17     0.31   305.31     0  05:00        0.31
  jd43                 JUNCTION     1.01     3.00   300.00     0  03:35        3.00
  jd44                 JUNCTION     1.03     3.00   286.00     0  03:39        3.00
  jd45                 JUNCTION     2.82     3.00   282.00     0  03:07        3.00
  jd46                 JUNCTION     0.25     0.45   275.45     0  05:00        0.45
  jd47                 JUNCTION     0.14     0.24   315.24     0  05:00        0.24
  jd48                 JUNCTION     0.10     0.17   325.17     0  05:00        0.17
  jd49                 JUNCTION     0.23     0.41   289.41     0  05:00        0.41
  jd50                 JUNCTION     2.85     3.00   278.00     0  02:51        3.00
  jd51                 JUNCTION     2.77     3.00   313.00     0  03:30        3.00
  jd52                 JUNCTION     0.59     3.00   326.00     0  04:26        1.97
  jd53                 JUNCTION     0.71     3.00   325.00     0  04:17        2.64
  jd54                 JUNCTION     0.25     0.44   326.44     0  05:00        0.44
  jd55                 JUNCTION     1.58     3.00   325.00     0  03:27        3.00
  jd56                 JUNCTION     0.16     0.30   327.30     0  05:00        0.30
  jd59                 JUNCTION     2.75     3.00   320.80     0  03:33        3.00
  jd60                 JUNCTION     2.83     3.00   319.00     0  03:02        3.00
  jd61                 JUNCTION     0.12     0.22   329.22     0  05:00        0.22
  jd62                 JUNCTION     0.06     0.10   335.10     0  05:00        0.10
  jd63                 JUNCTION     0.06     0.11   324.11     0  05:00        0.11
  jd64                 JUNCTION     2.57     3.00   321.00     0  03:33        2.84
  jd65                 JUNCTION     1.80     3.00   307.00     0  03:19        3.00
  jd66                 JUNCTION     2.82     3.00   304.00     0  03:09        3.00
  jd69                 JUNCTION     0.20     0.36   333.36     0  05:00        0.36
  jd79                 JUNCTION     2.78     3.00   274.00     0  02:57        3.00
  jd80                 JUNCTION     2.37     3.00   279.00     0  03:13        3.00
  jd81                 JUNCTION     0.13     0.23   288.23     0  05:00        0.23
  jd83                 JUNCTION     2.86     3.00   323.00     0  02:40        3.00
  jd84                 JUNCTION     0.21     0.40   323.40     0  05:00        0.40
  jd85                 JUNCTION     2.82     3.00   324.00     0  03:07        3.00
  jd87                 JUNCTION     2.82     3.00   322.00     0  03:05        3.00
  jd89                 JUNCTION     0.14     0.24   324.24     0  05:00        0.24
  jd90                 JUNCTION     0.12     0.21   328.21     0  05:00        0.21
  jd92                 JUNCTION     0.12     0.22   326.22     0  05:00        0.22
  jd93                 JUNCTION     0.67     3.00   327.00     0  04:18        2.48
  jd94                 JUNCTION     0.25     0.70   326.90     0  05:04        0.69
  jd95                 JUNCTION     0.29     0.54   327.54     0  04:32        0.54
  jd96                 JUNCTION     2.83     3.00   308.00     0  03:02        3.00
  jd97                 JUNCTION     0.29     0.55   327.75     0  04:36        0.55
  jd98                 JUNCTION     0.16     0.29   329.29     0  05:00        0.29
  jd99                 JUNCTION     2.81     3.00   327.00     0  03:09        3.00
  jd101                JUNCTION     0.10     0.17   321.17     0  05:00        0.17
  jd102                JUNCTION     0.20     0.37   324.37     0  05:00        0.37
  jd103                JUNCTION     0.10     0.17   318.17     0  05:00        0.17
  jd106                JUNCTION     2.79     3.00   287.00     0  03:21        3.00
  jd107                JUNCTION     0.19     0.32   332.32     0  05:00        0.32
  jd108                JUNCTION     1.13     1.36   327.36     0  04:20        1.36
  jd109                JUNCTION     0.14     0.25   343.25     0  05:00        0.25
  jd110                JUNCTION     2.82     3.00   327.00     0  03:08        3.00
  jd111                JUNCTION     0.06     0.11   344.11     0  05:00        0.11
  jd112                JUNCTION     0.08     0.14   334.14     0  05:00        0.14
  jd113                JUNCTION     0.09     0.16   348.16     0  05:00        0.16
  jd114                JUNCTION     2.82     3.00   317.00     0  03:05        3.00
  jd117                JUNCTION     1.15     3.00   319.00     0  03:12        1.81
  jd118                JUNCTION     0.08     0.14   330.14     0  05:00        0.14
  jd120                JUNCTION     0.14     0.25   327.25     0  05:00        0.25
  jd121                JUNCTION     0.14     0.25   320.25     0  05:00        0.25
  jd122                JUNCTION     2.81     3.00   276.00     0  03:10        3.00
  jd123                JUNCTION     2.80     3.00   276.20     0  03:13        3.00
  jd124                JUNCTION     2.87     3.00   271.00     0  02:33        3.00
  jd125                JUNCTION     1.26     3.00   278.00     0  03:29        3.00
  jd126                JUNCTION     2.86     3.00   275.00     0  02:41        3.00
  jd135                JUNCTION     0.12     0.21   289.21     0  05:00        0.21
  jd136                JUNCTION     0.23     0.41   341.41     0  05:00        0.41
  psk1                 OUTFALL      0.08     0.14   279.14     0  05:00        0.14
  psk2                 OUTFALL      0.11     0.21   270.21     0  05:00        0.21
  psk3                 OUTFALL      0.26     0.48   271.48     0  05:00        0.48
  psk4                 OUTFALL      0.00     0.00   280.00     0  00:00        0.00
  psk5                 OUTFALL      0.11     0.19   263.19     0  05:00        0.19
  psk6                 OUTFALL      0.08     0.13   259.13     0  05:00        0.13
  psk7                 OUTFALL      0.32     0.48   262.48     0  05:00        0.48
  psk8                 OUTFALL      0.00     0.00   317.00     0  00:00        0.00
  
  
  *******************
  Node Inflow Summary
  *******************
  
  -------------------------------------------------------------------------------------------------
                                  Maximum  Maximum                  Lateral       Total        Flow
                                  Lateral    Total  Time of Max      Inflow      Inflow     Balance
                                   Inflow   Inflow   Occurrence      Volume      Volume       Error
  Node                 Type           CMS      CMS  days hr:min    10^6 ltr    10^6 ltr     Percent
  -------------------------------------------------------------------------------------------------
  jd1                  JUNCTION     0.472    0.756     0  05:00         8.3        13.5       0.088
  jd2                  JUNCTION     0.733    0.998     0  05:00        12.8        17.5       0.165
  jd3                  JUNCTION     0.879    2.386     0  05:00        15.3        48.3       0.825
  jd4                  JUNCTION     1.058    1.180     0  05:00        18.4        20.6       0.193
  jd5                  JUNCTION     0.309    0.525     0  05:00        5.39        9.38       0.029
  jd6                  JUNCTION     0.357    0.357     0  05:00        6.22        6.22       0.049
  jd7                  JUNCTION     0.180    1.930     0  05:00        3.16        46.4       0.104
  jd8                  JUNCTION     0.250    1.196     0  05:00        4.38        32.6       0.559
  jd9                  JUNCTION     0.192    1.260     0  05:00        3.36          31       0.135
  jd10                 JUNCTION     0.512    0.650     0  05:00        8.95        11.4       0.893
  jd11                 JUNCTION     0.756    0.756     0  05:00        13.2        13.2       0.056
  jd12                 JUNCTION     0.569    1.242     0  05:00        9.93        21.6       0.640
  jd13                 JUNCTION     1.032    1.032     0  05:00          18          18       0.052
  jd14                 JUNCTION     1.210    1.364     0  05:00        21.1        23.7       0.113
  jd15                 JUNCTION     0.498    1.130     0  05:00         8.7        19.2       0.317
  jd16                 JUNCTION     0.535    2.120     0  05:00        9.36        36.2       0.120
  jd17                 JUNCTION     1.120    2.609     0  05:00        19.5        52.3       1.251
  jd18                 JUNCTION     0.887    1.292     0  05:00        15.5        22.5       0.162
  jd19                 JUNCTION     0.824    1.496     0  05:00        14.4        30.3       0.110
  jd20                 JUNCTION     0.685    0.920     0  05:00          12          22       0.196
  jd21                 JUNCTION     0.318    2.250     0  05:00        5.54        45.6       0.735
  jd22                 JUNCTION     0.559    1.194     0  05:00        9.76        21.6       0.376
  jd23                 JUNCTION     0.553    1.569     0  05:00        9.66        26.9       0.092
  jd24                 JUNCTION     0.909    0.909     0  05:00        15.9        15.9       0.058
  jd25                 JUNCTION     0.714    1.037     0  05:00        12.5          18       0.124
  jd26                 JUNCTION     1.040    1.740     0  05:00        18.1        30.4       0.114
  jd27                 JUNCTION     1.071    1.731     0  05:00        18.7        31.1       0.113
  jd28                 JUNCTION     1.461    1.996     0  05:00        25.5        35.6       0.376
  jd29                 JUNCTION     0.585    0.585     0  05:00        10.2        10.2       0.028
  jd30                 JUNCTION     0.609    1.952     0  05:00        10.6        31.3       0.064
  jd31                 JUNCTION     0.407    1.052     0  03:21         7.1        15.3       3.027
  jd32                 JUNCTION     0.826    3.073     0  05:00        14.4        60.6       0.412
  jd33                 JUNCTION     0.813    1.377     0  05:00        14.2        23.8       0.059
  jd34                 JUNCTION     1.006    1.006     0  05:00        17.6        17.6       0.048
  jd35                 JUNCTION     0.918    2.793     0  05:00          16        54.1       0.244
  jd36                 JUNCTION     1.560    2.429     0  05:00        27.2          44       0.134
  jd37                 JUNCTION     1.639    1.639     0  05:00        28.6        28.6       0.084
  jd38                 JUNCTION     1.506    2.456     0  05:00        26.3        43.6       0.180
  jd39                 JUNCTION     1.043    3.513     0  05:00        18.2        74.5       0.688
  jd40                 JUNCTION     1.778    3.966     0  05:00        31.1        74.4       0.176
  jd41                 JUNCTION     1.249    4.462     0  05:00        21.8        86.9       2.497
  jd42                 JUNCTION     1.639    1.796     0  05:00        28.6        31.3       0.145
  jd43                 JUNCTION     1.837    3.313     0  05:00        32.2        56.7       0.201
  jd44                 JUNCTION     2.461    4.829     0  05:00          43        98.7       0.166
  jd45                 JUNCTION     0.999    3.225     0  05:00        17.4        65.3       0.497
  jd46                 JUNCTION     0.456    0.456     0  05:00        7.95        7.95       0.396
  jd47                 JUNCTION     1.468    1.468     0  05:00        25.7        25.7       0.017
  jd48                 JUNCTION     0.406    0.406     0  05:00        7.17        7.17       0.038
  jd49                 JUNCTION     1.996    1.996     0  05:00        34.8        34.8       0.107
  jd50                 JUNCTION     2.070    4.621     0  05:00        36.2         105       0.416
  jd51                 JUNCTION     0.432    1.991     0  05:00        7.57        34.9       4.086
  jd52                 JUNCTION     0.883    3.504     0  04:26        15.4        57.1       0.162
  jd53                 JUNCTION     0.491    2.375     0  04:12        8.56          45       0.095
  jd54                 JUNCTION     0.264    1.312     0  05:00        4.61          23       0.118
  jd55                 JUNCTION     0.481    1.650     0  05:00         8.4        27.9       2.800
  jd56                 JUNCTION     0.292    0.854     0  05:00        5.11        14.9       0.091
  jd59                 JUNCTION     0.290    1.438     0  05:00        5.06        24.7       3.204
  jd60                 JUNCTION     0.519    1.101     0  05:00        9.07        19.3       0.667
  jd61                 JUNCTION     0.582    0.655     0  05:00        10.2        11.5       0.071
  jd62                 JUNCTION     0.234    0.234     0  05:00        4.14        4.14       0.015
  jd63                 JUNCTION     0.322    0.322     0  05:00        5.63        5.63       0.037
  jd64                 JUNCTION     0.271    0.669     0  05:00        4.73        11.7       3.297
  jd65                 JUNCTION     4.641    4.641     0  05:00        80.9        80.9       0.076
  jd66                 JUNCTION     0.608    1.763     0  05:00        10.7        31.1       1.017
  jd69                 JUNCTION     1.124    1.155     0  05:00        19.8        20.4       0.087
  jd79                 JUNCTION     1.094    1.944     0  04:49        19.1        34.3       0.514
  jd80                 JUNCTION     1.216    1.671     0  05:00        21.2        28.5       0.461
  jd81                 JUNCTION     0.924    0.924     0  05:00        16.1        16.1       0.022
  jd83                 JUNCTION     0.962    1.185     0  05:00        16.9        22.1       0.390
  jd84                 JUNCTION     1.223    1.223     0  05:00        21.5        21.5       0.063
  jd85                 JUNCTION     0.278    0.455     0  05:00        4.86        7.99       1.066
  jd87                 JUNCTION     0.228    0.549     0  05:00        3.98        9.63       0.771
  jd89                 JUNCTION     0.265    0.265     0  05:00        4.63        4.63       0.098
  jd90                 JUNCTION     0.271    0.271     0  05:00        4.73        4.73       0.048
  jd92                 JUNCTION     0.227    0.227     0  05:00        3.98        3.98       0.046
  jd93                 JUNCTION     0.490    1.037     0  05:02        8.56        18.5       0.139
  jd94                 JUNCTION     0.031    0.576     0  04:38       0.545        9.95       0.160
  jd95                 JUNCTION     0.059    0.538     0  05:00        1.03        9.42       0.132
  jd96                 JUNCTION     0.444    0.591     0  05:00        7.85        10.4       0.926
  jd97                 JUNCTION     0.479    0.479     0  05:00        8.39        8.39       0.029
  jd98                 JUNCTION     0.267    0.267     0  05:00        4.68        4.68       0.052
  jd99                 JUNCTION     0.129    0.353     0  05:00        2.26        7.24       0.778
  jd101                JUNCTION     0.350    0.699     0  05:00        6.13        12.2       0.018
  jd102                JUNCTION     0.349    0.349     0  05:00        6.08        6.08       0.092
  jd103                JUNCTION     0.240    0.240     0  05:00         4.2         4.2       0.023
  jd106                JUNCTION     0.188    1.132     0  05:00        3.29        19.3       2.044
  jd107                JUNCTION     0.271    0.892     0  05:00        4.75        15.6       0.114
  jd108                JUNCTION     0.295    0.295     0  05:00         5.2        5.22       1.263
  jd109                JUNCTION     0.493    0.493     0  05:00        8.63        8.63       0.023
  jd110                JUNCTION     0.375    0.558     0  05:00        6.66         9.9       1.531
  jd111                JUNCTION     0.311    0.311     0  05:00        5.48        5.48       0.032
  jd112                JUNCTION     0.366    1.017     0  05:00        6.39        17.9       0.039
  jd113                JUNCTION     0.246    0.246     0  05:00        4.36        4.36      -0.004
  jd114                JUNCTION     0.297    3.453     0  04:26        5.19        65.9       0.478
  jd117                JUNCTION     0.274    0.898     0  05:00        4.78        15.8       0.967
  jd118                JUNCTION     0.250    0.250     0  05:00        4.38        4.38       0.004
  jd120                JUNCTION     0.313    0.313     0  05:00        5.46        5.46       0.043
  jd121                JUNCTION     0.386    0.386     0  05:00        6.78        6.78       0.061
  jd122                JUNCTION     0.917    3.491     0  05:00          16        71.2       0.790
  jd123                JUNCTION     0.943    3.077     0  05:00        16.5        72.7       0.954
  jd124                JUNCTION     1.361    2.434     0  05:00        23.7        56.6       0.103
  jd125                JUNCTION     1.324    2.999     0  05:00        23.1        68.3       0.073
  jd126                JUNCTION     1.923    2.655     0  05:00        33.6        46.8       0.216
  jd135                JUNCTION     0.488    0.488     0  05:00        8.53        8.53       0.031
  jd136                JUNCTION     0.405    0.651     0  05:00        7.14        11.5       0.105
  psk1                 OUTFALL      0.000    0.486     0  05:00           0        8.49       0.000
  psk2                 OUTFALL      0.000    1.455     0  05:00           0        23.1       0.000
  psk3                 OUTFALL      0.000    2.119     0  05:00           0        36.2       0.000
  psk4                 OUTFALL      0.000    0.000     0  00:00           0           0       0.000 ltr
  psk5                 OUTFALL      0.000    0.491     0  05:00           0        8.75       0.000
  psk6                 OUTFALL      0.000    0.403     0  05:00           0        7.19       0.000
  psk7                 OUTFALL      0.000    1.930     0  05:00           0        46.3       0.000
  psk8                 OUTFALL      0.000    0.000     0  00:00           0           0       0.000 ltr
  
  
  **********************
  Node Surcharge Summary
  **********************
  
  Surcharging occurs when water rises above the top of the highest conduit.
  ---------------------------------------------------------------------
                                               Max. Height   Min. Depth
                                   Hours       Above Crown    Below Rim
  Node                 Type      Surcharged         Meters       Meters
  ---------------------------------------------------------------------
  jd2                  JUNCTION        1.66          2.200        0.000
  jd3                  JUNCTION       13.79          2.200        0.000
  jd4                  JUNCTION        5.47          2.200        0.000
  jd8                  JUNCTION       11.23          2.200        0.000
  jd9                  JUNCTION        6.48          2.200        0.000
  jd10                 JUNCTION       13.87          2.400        0.000
  jd12                 JUNCTION       13.95          2.400        0.000
  jd17                 JUNCTION       11.79          2.200        0.000
  jd18                 JUNCTION        1.23          2.000        0.000
  jd19                 JUNCTION        4.46          2.200        0.000
  jd21                 JUNCTION       13.81          2.200        0.000
  jd22                 JUNCTION       13.73          2.400        0.000
  jd28                 JUNCTION       14.10          2.400        0.000
  jd31                 JUNCTION       13.63          2.200        0.000
  jd32                 JUNCTION       14.01          2.200        0.000
  jd35                 JUNCTION       14.28          2.400        0.000
  jd36                 JUNCTION        1.97          2.400        0.000
  jd37                 JUNCTION        1.87          2.400        0.000
  jd39                 JUNCTION       13.80          2.000        0.000
  jd40                 JUNCTION        2.79          2.200        0.000
  jd41                 JUNCTION       13.53          1.000        0.000
  jd43                 JUNCTION        2.61          2.200        0.000
  jd44                 JUNCTION        2.69          2.000        0.000
  jd45                 JUNCTION       13.89          2.000        0.000
  jd50                 JUNCTION       14.15          2.200        0.000
  jd51                 JUNCTION       13.50          1.350        0.000
  jd52                 JUNCTION        1.65          1.500        0.000
  jd53                 JUNCTION        1.87          1.800        0.000
  jd55                 JUNCTION        2.96          1.500        0.000
  jd59                 JUNCTION       13.45          1.500        0.000
  jd60                 JUNCTION       13.97          2.400        0.000
  jd64                 JUNCTION       13.47          1.800        0.000
  jd65                 JUNCTION        6.78          2.400        0.000
  jd66                 JUNCTION       13.84          2.200        0.000
  jd79                 JUNCTION       14.05          2.400        0.000
  jd80                 JUNCTION       12.67          2.400        0.000
  jd83                 JUNCTION       14.33          2.400        0.000
  jd85                 JUNCTION       13.88          2.400        0.000
  jd87                 JUNCTION       13.91          2.400        0.000
  jd93                 JUNCTION        1.89          2.200        0.000
  jd96                 JUNCTION       13.96          2.200        0.000
  jd99                 JUNCTION       13.84          2.400        0.000
  jd106                JUNCTION       13.65          2.000        0.000
  jd108                JUNCTION       13.93          0.363        1.637
  jd110                JUNCTION       13.87          2.000        0.000
  jd114                JUNCTION       13.91          2.000        0.000
  jd117                JUNCTION       13.80          2.200        0.000
  jd122                JUNCTION       13.83          2.200        0.000
  jd123                JUNCTION       13.78          2.200        0.000
  jd124                JUNCTION       14.45          2.400        0.000
  jd125                JUNCTION        5.07          2.200        0.000
  jd126                JUNCTION       14.31          2.400        0.000
  
  
  *********************
  Node Flooding Summary
  *********************
  
  Flooding refers to all water that overflows a node, whether it ponds or not.
  --------------------------------------------------------------------------
                                                             Total   Maximum
                                 Maximum   Time of Max       Flood    Ponded
                        Hours       Rate    Occurrence      Volume     Depth
  Node                 Flooded       CMS   days hr:min    10^6 ltr    Meters
  --------------------------------------------------------------------------
  jd2                     0.01     0.100      0  04:24       0.001     0.000
  jd3                    13.79     2.386      0  05:00      47.943     0.000
  jd4                     3.76     0.670      0  05:00       5.063     0.000
  jd8                     2.81     0.308      0  03:16       1.143     0.000
  jd9                     2.77     0.322      0  03:21       2.815     0.000
  jd10                   13.87     0.650      0  05:00      11.279     0.000
  jd12                   13.94     1.242      0  05:00      21.423     0.000
  jd17                    6.38     1.780      0  05:00      18.334     0.000
  jd18                    0.01     0.118      0  04:49       0.001     0.000
  jd19                    2.52     0.428      0  05:00       2.611     0.000
  jd21                   13.65     2.250      0  05:00      44.980     0.000
  jd22                    2.52     0.370      0  05:00       2.272     0.000
  jd28                   14.10     1.996      0  05:00      35.491     0.000
  jd31                    0.01     0.888      0  03:22       0.009     0.000
  jd32                   14.00     3.073      0  05:00      60.366     0.000
  jd35                   14.28     2.793      0  05:00      53.959     0.000
  jd36                    1.84     0.335      0  05:00       1.512     0.000
  jd37                    1.30     0.224      0  04:12       0.399     0.000
  jd39                   13.80     3.513      0  05:00      73.985     0.000
  jd40                    2.68     1.404      0  05:00      10.789     0.000
  jd41                   13.52     4.462      0  05:00      84.781     0.000
  jd43                    2.56     1.482      0  05:00      10.258     0.000
  jd44                    2.40     0.929      0  05:00       5.494     0.000
  jd45                   13.88     3.225      0  05:00      64.973     0.000
  jd50                   14.14     4.621      0  05:00     104.226     0.000
  jd51                   13.50     1.991      0  05:00      33.491     0.000
  jd52                    0.01     0.812      0  04:26       0.009     0.000
  jd53                    0.01     0.251      0  04:17       0.003     0.000
  jd55                    1.63     0.934      0  05:00       3.864     0.000
  jd59                   13.45     1.438      0  05:00      23.951     0.000
  jd60                   13.96     1.101      0  05:00      19.182     0.000
  jd64                    0.02     0.525      0  03:33       0.020     0.000
  jd65                    6.61     3.548      0  05:00      37.825     0.000
  jd66                   13.84     1.763      0  05:00      30.746     0.000
  jd79                   11.32     1.707      0  04:49      24.098     0.000
  jd80                    7.48     1.513      0  05:00      18.965     0.000
  jd83                   14.32     1.185      0  05:00      22.059     0.000
  jd85                   13.87     0.455      0  05:00       7.910     0.000
  jd87                   13.91     0.549      0  05:00       9.552     0.000
  jd93                    0.01     0.083      0  04:18       0.001     0.000
  jd96                   13.96     0.591      0  05:00      10.339     0.000
  jd99                   13.84     0.353      0  05:00       7.181     0.000
  jd106                  13.65     1.132      0  05:00      18.870     0.000
  jd110                  13.87     0.558      0  05:00       9.752     0.000
  jd114                  13.81     3.450      0  04:26      65.479     0.000
  jd117                   0.01     0.423      0  03:12       0.005     0.000
  jd122                  13.79     3.491      0  05:00      70.533     0.000
  jd123                  13.78     2.762      0  05:00      56.404     0.000
  jd124                  14.45     2.434      0  05:00      56.551     0.000
  jd125                   2.52     0.613      0  05:00       4.182     0.000
  jd126                  14.31     2.655      0  05:00      46.674     0.000
  
  
  ***********************
  Outfall Loading Summary
  ***********************
  
  -----------------------------------------------------------
                         Flow       Avg       Max       Total
                         Freq      Flow      Flow      Volume
  Outfall Node           Pcnt       CMS       CMS    10^6 ltr
  -----------------------------------------------------------
  psk1                  97.56     0.199     0.486       8.490
  psk2                  97.07     0.553     1.455      23.122
  psk3                  97.78     0.848     2.119      36.160
  psk4                   0.00     0.000     0.000       0.000
  psk5                  97.07     0.205     0.491       8.754
  psk6                  97.11     0.169     0.403       7.193
  psk7                  96.94     1.039     1.930      46.346
  psk8                   0.00     0.000     0.000       0.000
  -----------------------------------------------------------
  System                72.94     3.012     0.000     130.065
  
  
  ********************
  Link Flow Summary
  ********************
  
  -----------------------------------------------------------------------------
                                 Maximum  Time of Max   Maximum    Max/    Max/
                                  |Flow|   Occurrence   |Veloc|    Full    Full
  Link                 Type          CMS  days hr:min     m/sec    Flow   Depth
  -----------------------------------------------------------------------------
  GQ1                  CONDUIT     0.284     0  05:00      1.90    0.75    0.52
  GQ2                  CONDUIT     0.844     0  05:00      2.41    0.40    0.46
  GQ3                  CONDUIT     0.486     0  05:00      5.78    0.02    0.09
  GQ4                  CONDUIT     0.510     0  04:33      1.80    1.00    1.00
  GQ5                  CONDUIT     0.998     0  05:00      1.98    0.83    1.00
  GQ6                  CONDUIT     0.265     0  05:00      1.15    0.12    0.62
  GQ7                  CONDUIT     1.675     0  05:02      3.64    1.00    1.00
  GQ8                  CONDUIT     0.537     0  05:00      1.32    0.51    0.75
  GQ9                  CONDUIT     1.458     0  05:00      3.59    0.51    0.75
  GQ10                 CONDUIT     1.136     0  10:42      4.10    1.04    1.00
  GQ11                 CONDUIT     0.157     0  05:00      1.80    0.17    0.39
  GQ12                 CONDUIT     0.186     0  05:00      0.95    0.20    0.65
  GQ13                 CONDUIT     0.123     0  05:00      0.51    0.06    0.58
  GQ14                 CONDUIT     0.061     0  05:00      0.95    0.09    0.19
  GQ15                 CONDUIT     0.156     0  05:00      4.16    0.63    0.52
  GQ16                 CONDUIT     1.343     0  05:00      3.95    0.65    0.45
  GQ17                 CONDUIT     0.295     0  05:00      1.57    0.09    0.40
  GQ18                 CONDUIT     1.060     0  05:00      2.50    4.78    0.80
  GQ19                 CONDUIT     0.395     0  05:00      1.89    0.05    0.31
  GQ20                 CONDUIT     0.087     0  05:00      0.44    0.05    0.57
  GQ21                 CONDUIT     0.318     0  05:00      1.34    0.10    0.61
  GQ22                 CONDUIT     0.322     0  05:00      1.69    0.10    0.29
  GQ23                 CONDUIT     0.599     0  05:00      2.20    0.29    0.38
  GQ24                 CONDUIT     0.934     0  05:00      2.34    0.46    0.74
  GQ25                 CONDUIT     0.564     0  05:00      3.59    0.63    0.54
  GQ26                 CONDUIT     0.417     0  05:00      2.53    0.49    0.57
  GQ27                 CONDUIT     0.635     0  05:00      2.55    0.64    0.82
  GQ28                 CONDUIT     0.248     0  05:00      0.68    0.27    0.68
  GQ29                 CONDUIT     0.861     0  05:00      1.71    0.40    1.00
  GQ30                 CONDUIT     0.824     0  04:02      2.91    1.00    1.00
  GQ31                 CONDUIT     0.442     0  05:00      1.83    0.59    0.80
  GQ32                 CONDUIT     0.661     0  05:00      2.96    1.06    0.79
  GQ33                 CONDUIT     1.434     0  05:25      5.07    1.00    1.00
  GQ34                 CONDUIT     0.330     0  05:00      1.44    0.52    0.76
  GQ35                 CONDUIT     0.562     0  04:10      2.11    1.04    1.00
  GQ36                 CONDUIT     0.953     0  04:14      3.37    1.18    1.00
  GQ37                 CONDUIT     0.365     0  05:00      1.53    0.52    0.79
  GQ38                 CONDUIT     0.170     0  05:00      0.84    0.24    0.67
  GQ39                 CONDUIT     0.702     0  05:00      2.59    0.90    0.91
  GQ40                 CONDUIT     0.504     0  05:00      2.45    0.63    0.70
  GQ41                 CONDUIT     1.111     0  05:00      1.57    0.51    0.84
  GQ42                 CONDUIT     1.359     0  04:34      2.70    1.00    1.00
  GQ43                 CONDUIT     2.312     0  04:16      4.70    1.03    1.00
  GQ44                 CONDUIT     0.946     0  04:28      1.88    1.00    1.00
  GQ45                 CONDUIT     0.672     0  05:00      1.85    0.27    0.68
  GQ46                 CONDUIT     1.068     0  04:41      2.12    1.00    1.00
  GQ47                 CONDUIT     0.138     0  05:00      0.74    0.13    0.62
  GQ48                 CONDUIT     0.137     0  05:00      0.74    0.13    0.62
  GQ49                 CONDUIT     0.536     0  05:00      2.74    0.20    0.65
  GQ50                 CONDUIT     0.154     0  05:00      1.00    0.20    0.55
  GQ51                 CONDUIT     0.632     0  05:00      2.72    0.96    0.77
  GQ52                 CONDUIT     0.454     0  05:00      1.08    0.60    0.78
  GQ53                 CONDUIT     2.225     0  05:54      2.83    1.00    1.00
  GQ54                 CONDUIT     0.333     0  05:00      1.62    0.29    0.68
  GQ55                 CONDUIT     0.249     0  05:00      1.30    0.17    0.64
  GQ56                 CONDUIT     1.967     0  03:34      4.22    1.07    1.00
  GQ57                 CONDUIT     0.475     0  05:00      1.28    0.31    0.69
  GQ58                 CONDUIT     0.990     0  05:00      2.67    0.31    0.69
  GQ59                 CONDUIT     1.203     0  04:44      2.39    1.00    1.00
  GQ60                 CONDUIT     1.623     0  04:26      1.11    0.39    1.00
  GQ61                 CONDUIT     0.214     0  05:00      0.33    0.03    0.56
  GQ62                 CONDUIT     0.447     0  05:00      0.40    0.04    0.57
  GQ63                 CONDUIT     1.021     0  05:00      0.85    0.03    0.56
  GQ64                 CONDUIT     0.072     0  05:00      1.27    0.06    0.26
  GQ65                 CONDUIT     0.031     0  05:00      0.32    0.06    0.38
  GQ66                 CONDUIT     0.127     0  05:00      0.47    0.04    0.57
  GQ67                 CONDUIT     0.669     0  05:00      0.59    0.46    1.00
  GQ68                 CONDUIT     0.629     0  05:00      1.16    0.20    0.65
  GQ69                 CONDUIT     1.155     0  05:00      2.97    0.41    0.72
  GQ70                 CONDUIT     0.403     0  05:00      7.53    0.06    0.16
  GQ71                 CONDUIT     0.491     0  05:00      5.50    0.12    0.23
  GQ72                 CONDUIT     1.930     0  05:00      5.22    0.46    0.48
  GQ73                 CONDUIT     1.455     0  05:00     12.31    0.09    0.21
  GQ74                 CONDUIT     0.261     0  05:00      1.27    0.05    0.31
  GQ75                 CONDUIT     0.327     0  05:00      0.66    0.10    0.60
  GQ76                 CONDUIT     2.119     0  05:00      5.76    0.46    0.48
  GQ77                 CONDUIT     0.000     0  00:00      0.00    0.00    0.22
  GQ78                 CONDUIT     0.851     0  04:49      3.01    0.93    1.00
  GQ79                 CONDUIT     0.235     0  05:00      1.08    0.51    0.74
  GQ80                 CONDUIT     0.455     0  05:00      1.61    0.75    1.00
  GQ81                 CONDUIT     0.601     0  03:18      2.13    3.81    1.00
  GQ82                 CONDUIT     0.444     0  05:00      2.14    0.31    0.69
  GQ83                 CONDUIT     0.479     0  05:00      2.78    0.31    0.59
  GQ84                 CONDUIT     1.000     0  05:00      3.96    0.79    0.84
  GQ85                 CONDUIT     0.222     0  05:00      0.88    0.38    0.84
  GQ86                 CONDUIT     0.131     0  05:00      0.77    0.06    0.58
  GQ87                 CONDUIT     0.047     0  05:00      0.27    0.07    0.59
  GQ88                 CONDUIT     0.322     0  05:00      1.56    0.29    0.68
  GQ89                 CONDUIT     0.265     0  05:00      1.25    0.35    0.70
  GQ90                 CONDUIT     0.271     0  05:00      1.33    0.27    0.68
  GQ91                 CONDUIT     0.227     0  05:00      1.11    0.28    0.68
  GQ92                 CONDUIT     0.544     0  04:38      1.75    0.78    0.77
  GQ93                 CONDUIT     0.589     0  06:04      1.45    0.51    0.94
  GQ94                 CONDUIT     1.037     0  05:02      2.14    1.23    1.00
  GQ95                 CONDUIT     0.148     0  05:00      0.50    0.04    0.57
  GQ96                 CONDUIT     0.479     0  05:00      1.33    0.82    0.68
  GQ97                 CONDUIT     0.267     0  05:00      1.90    0.48    0.50
  GQ98                 CONDUIT     0.225     0  05:00      0.98    0.32    0.75
  GQ99                 CONDUIT     0.485     0  05:00      0.57    0.03    0.56
  GQ100                CONDUIT     0.349     0  05:00      2.82    0.60    0.45
  GQ101                CONDUIT     0.240     0  05:00      1.25    0.18    0.64
  GQ102                CONDUIT     0.960     0  05:00      2.62    0.29    0.68
  GQ103                CONDUIT     0.437     0  05:00      1.78    0.67    0.81
  GQ104                CONDUIT     0.862     0  05:00      3.61    0.63    0.79
  GQ105                CONDUIT     0.692     0  03:13      1.38    2.20    1.00
  GQ106                CONDUIT     0.268     0  05:00      1.32    0.27    0.68
  GQ107                CONDUIT     1.036     0  05:00      3.83    0.93    0.91
  GQ108                CONDUIT     0.829     0  04:46      1.65    1.00    1.00
  GQ109                CONDUIT     0.196     0  05:00      1.26    0.27    0.59
  GQ110                CONDUIT     0.324     0  05:00      0.70    0.05    0.57
  GQ111                CONDUIT     0.292     0  05:00      1.43    0.27    0.68
  GQ112                CONDUIT     0.892     0  05:00      2.88    0.16    0.32
  GQ113                CONDUIT     0.493     0  05:00      3.66    0.37    0.48
  GQ114                CONDUIT     0.295     0  05:00      0.54    0.12    0.65
  GQ115                CONDUIT     0.127     0  05:00      0.95    0.02    0.18
  GQ116                CONDUIT     0.184     0  05:00      0.41    0.03    0.55
  GQ117                CONDUIT     0.651     0  05:00      4.25    0.41    0.34
  GQ118                CONDUIT     0.246     0  05:00      1.83    0.08    0.35
  GQ119                CONDUIT     2.275     0  04:26      4.52    0.99    1.00
  GQ120                CONDUIT     0.000     0  00:00      0.00    0.00    0.50
  GQ121                CONDUIT     0.898     0  05:00      1.79    0.63    1.00
  GQ122                CONDUIT     0.374     0  05:00      1.26    0.07    0.59
  GQ123                CONDUIT     0.250     0  05:00      1.37    0.12    0.62
  GQ124                CONDUIT     0.156     0  05:00      1.00    0.07    0.36
  GQ125                CONDUIT     0.313     0  05:00      1.47    0.35    0.70
  GQ126                CONDUIT     0.386     0  05:00      1.80    0.37    0.71
  GQ127                CONDUIT     0.795     0  06:09      1.67    1.02    1.00
  GQ128                CONDUIT     1.312     0  05:00      2.66    0.29    0.68
  GQ129                CONDUIT     1.313     0  05:23      2.61    1.00    1.00
  GQ130                CONDUIT     1.073     0  03:59      3.79    1.00    1.00
  GQ131                CONDUIT     0.731     0  05:00      2.73    0.85    0.90
  
  
  ***************************
  Flow Classification Summary
  ***************************
  
  -------------------------------------------------------------------------------------
                      Adjusted    ---------- Fraction of Time in Flow Class ---------- 
                       /Actual         Up    Down  Sub   Sup   Up    Down  Norm  Inlet 
  Conduit               Length    Dry  Dry   Dry   Crit  Crit  Crit  Crit  Ltd   Ctrl  
  -------------------------------------------------------------------------------------
  GQ1                     1.00   0.02  0.00  0.00  0.02  0.96  0.00  0.00  0.00  0.00
  GQ2                     1.00   0.02  0.00  0.00  0.03  0.95  0.00  0.00  0.93  0.00
  GQ3                     1.00   0.02  0.00  0.00  0.01  0.97  0.00  0.00  0.06  0.00
  GQ4                     1.00   0.02  0.00  0.00  0.98  0.00  0.00  0.00  0.49  0.00
  GQ5                     1.00   0.02  0.00  0.00  0.98  0.00  0.00  0.00  0.78  0.00
  GQ6                     1.00   0.02  0.00  0.00  0.98  0.01  0.00  0.00  0.94  0.00
  GQ7                     1.00   0.02  0.00  0.00  0.31  0.68  0.00  0.00  0.18  0.00
  GQ8                     1.00   0.02  0.00  0.00  0.98  0.00  0.00  0.00  0.93  0.00
  GQ9                     1.00   0.02  0.00  0.00  0.72  0.27  0.00  0.00  0.94  0.00
  GQ10                    1.00   0.02  0.00  0.00  0.69  0.29  0.00  0.00  0.52  0.00
  GQ11                    1.00   0.02  0.00  0.00  0.26  0.73  0.00  0.00  0.92  0.00
  GQ12                    1.00   0.02  0.00  0.00  0.98  0.00  0.00  0.00  0.94  0.00
  GQ13                    1.00   0.02  0.00  0.00  0.98  0.00  0.00  0.00  0.94  0.00
  GQ14                    1.00   0.02  0.00  0.00  0.98  0.00  0.00  0.00  0.03  0.00
  GQ15                    1.00   0.02  0.00  0.00  0.02  0.97  0.00  0.00  0.01  0.00
  GQ16                    1.00   0.02  0.00  0.00  0.02  0.97  0.00  0.00  0.00  0.00
  GQ17                    1.00   0.02  0.00  0.00  0.86  0.13  0.00  0.00  0.93  0.00
  GQ18                    1.00   0.02  0.00  0.00  0.92  0.06  0.00  0.00  0.09  0.00
  GQ19                    1.00   0.02  0.00  0.00  0.65  0.33  0.00  0.00  0.94  0.00
  GQ20                    1.00   0.02  0.00  0.00  0.98  0.00  0.00  0.00  0.94  0.00
  GQ21                    1.00   0.02  0.00  0.00  0.48  0.50  0.00  0.00  0.94  0.00
  GQ22                    1.00   0.02  0.00  0.00  0.02  0.97  0.00  0.00  0.94  0.00
  GQ23                    1.00   0.02  0.00  0.00  0.02  0.97  0.00  0.00  0.24  0.00
  GQ24                    1.00   0.02  0.00  0.00  0.98  0.00  0.00  0.00  0.90  0.00
  GQ25                    1.00   0.02  0.00  0.00  0.00  0.98  0.00  0.00  0.01  0.00
  GQ26                    1.00   0.02  0.00  0.00  0.02  0.97  0.00  0.00  0.91  0.00
  GQ27                    1.00   0.02  0.00  0.00  0.71  0.27  0.00  0.00  0.79  0.00
  GQ28                    1.00   0.02  0.00  0.00  0.98  0.00  0.00  0.00  0.89  0.00
  GQ29                    1.00   0.02  0.00  0.00  0.98  0.00  0.00  0.00  0.13  0.00
  GQ30                    1.00   0.02  0.00  0.00  0.97  0.01  0.00  0.00  0.11  0.00
  GQ31                    1.00   0.02  0.00  0.00  0.98  0.00  0.00  0.00  0.82  0.00
  GQ32                    1.00   0.02  0.00  0.00  0.02  0.97  0.00  0.00  0.01  0.00
  GQ33                    1.00   0.02  0.00  0.00  0.60  0.39  0.00  0.00  0.78  0.00
  GQ34                    1.00   0.02  0.00  0.00  0.98  0.01  0.00  0.00  0.94  0.00
  GQ35                    1.00   0.02  0.00  0.00  0.25  0.73  0.00  0.00  0.61  0.00
  GQ36                    1.00   0.02  0.00  0.00  0.21  0.77  0.00  0.00  0.78  0.00
  GQ37                    1.00   0.02  0.00  0.00  0.98  0.00  0.00  0.00  0.81  0.00
  GQ38                    1.00   0.02  0.00  0.00  0.98  0.00  0.00  0.00  0.83  0.00
  GQ39                    1.00   0.02  0.00  0.00  0.97  0.01  0.00  0.00  0.81  0.00
  GQ40                    1.00   0.02  0.00  0.00  0.02  0.96  0.00  0.00  0.94  0.00
  GQ41                    1.00   0.02  0.00  0.00  0.98  0.00  0.00  0.00  0.77  0.00
  GQ42                    1.00   0.02  0.00  0.00  0.98  0.00  0.00  0.00  0.62  0.00
  GQ43                    1.00   0.02  0.00  0.00  0.22  0.77  0.00  0.00  0.81  0.00
  GQ44                    1.00   0.02  0.00  0.00  0.98  0.00  0.00  0.00  0.46  0.00
  GQ45                    1.00   0.02  0.00  0.00  0.51  0.48  0.00  0.00  0.94  0.00
  GQ46                    1.00   0.02  0.00  0.00  0.65  0.34  0.00  0.00  0.52  0.00
  GQ47                    1.00   0.02  0.00  0.00  0.98  0.00  0.00  0.00  0.94  0.00
  GQ48                    1.00   0.02  0.00  0.00  0.98  0.00  0.00  0.00  0.94  0.00
  GQ49                    1.00   0.02  0.00  0.00  0.72  0.26  0.00  0.00  0.94  0.00
  GQ50                    1.00   0.02  0.00  0.00  0.98  0.00  0.00  0.00  0.94  0.00
  GQ51                    1.00   0.02  0.00  0.00  0.02  0.97  0.00  0.00  0.63  0.00
  GQ52                    1.00   0.02  0.00  0.00  0.98  0.00  0.00  0.00  0.83  0.00
  GQ53                    1.00   0.02  0.00  0.00  0.98  0.00  0.00  0.00  0.65  0.00
  GQ54                    1.00   0.02  0.00  0.00  0.98  0.00  0.00  0.00  0.94  0.00
  GQ55                    1.00   0.02  0.00  0.00  0.98  0.00  0.00  0.00  0.94  0.00
  GQ56                    1.00   0.02  0.00  0.00  0.27  0.71  0.00  0.00  0.63  0.00
  GQ57                    1.00   0.02  0.00  0.00  0.98  0.00  0.00  0.00  0.94  0.00
  GQ58                    1.00   0.02  0.00  0.00  0.78  0.21  0.00  0.00  0.94  0.00
  GQ59                    1.00   0.02  0.00  0.00  0.98  0.00  0.00  0.00  0.65  0.00
  GQ60                    1.00   0.02  0.00  0.00  0.98  0.00  0.00  0.00  0.14  0.00
  GQ61                    1.00   0.02  0.00  0.00  0.98  0.00  0.00  0.00  0.94  0.00
  GQ62                    1.00   0.02  0.00  0.00  0.98  0.00  0.00  0.00  0.94  0.00
  GQ63                    1.00   0.02  0.00  0.00  0.98  0.01  0.00  0.00  0.94  0.00
  GQ64                    1.00   0.02  0.00  0.00  0.20  0.79  0.00  0.00  0.94  0.00
  GQ65                    1.00   0.02  0.00  0.00  0.98  0.00  0.00  0.00  0.94  0.00
  GQ66                    1.00   0.02  0.00  0.00  0.98  0.00  0.00  0.00  0.94  0.00
  GQ67                    1.00   0.02  0.00  0.00  0.98  0.00  0.00  0.00  0.11  0.00
  GQ68                    1.00   0.02  0.00  0.00  0.98  0.00  0.00  0.00  0.94  0.00
  GQ69                    1.00   0.02  0.00  0.00  0.72  0.26  0.00  0.00  0.94  0.00
  GQ70                    1.00   0.02  0.00  0.00  0.01  0.97  0.00  0.00  0.00  0.00
  GQ71                    1.00   0.02  0.00  0.00  0.01  0.97  0.00  0.00  0.08  0.00
  GQ72                    1.00   0.02  0.00  0.00  0.00  0.98  0.00  0.00  0.28  0.00
  GQ73                    1.00   0.02  0.00  0.00  0.01  0.97  0.00  0.00  0.01  0.00
  GQ74                    1.00   0.02  0.00  0.00  0.93  0.06  0.00  0.00  0.94  0.00
  GQ75                    1.00   0.02  0.00  0.00  0.98  0.00  0.00  0.00  0.94  0.00
  GQ76                    1.00   0.02  0.00  0.00  0.00  0.98  0.00  0.00  0.19  0.00
  GQ77                    1.00   0.02  0.98  0.00  0.00  0.00  0.00  0.00  0.00  0.00
  GQ78                    1.00   0.02  0.00  0.00  0.91  0.08  0.00  0.00  0.77  0.00
  GQ79                    1.00   0.02  0.00  0.00  0.98  0.00  0.00  0.00  0.11  0.00
  GQ80                    1.00   0.02  0.00  0.00  0.98  0.00  0.00  0.00  0.55  0.00
  GQ81                    1.00   0.02  0.00  0.00  0.98  0.00  0.00  0.00  0.00  0.00
  GQ82                    1.00   0.02  0.00  0.00  0.78  0.20  0.00  0.00  0.94  0.00
  GQ83                    1.00   0.02  0.00  0.00  0.01  0.97  0.00  0.00  0.94  0.00
  GQ84                    1.00   0.02  0.00  0.00  0.02  0.96  0.00  0.00  0.94  0.00
  GQ85                    1.00   0.02  0.00  0.00  0.98  0.00  0.00  0.00  0.59  0.00
  GQ86                    1.00   0.02  0.00  0.00  0.98  0.00  0.00  0.00  0.94  0.00
  GQ87                    1.00   0.02  0.00  0.00  0.98  0.00  0.00  0.00  0.94  0.00
  GQ88                    1.00   0.02  0.00  0.00  0.98  0.00  0.00  0.00  0.94  0.00
  GQ89                    1.00   0.02  0.00  0.00  0.98  0.00  0.00  0.00  0.94  0.00
  GQ90                    1.00   0.02  0.00  0.00  0.98  0.01  0.00  0.00  0.94  0.00
  GQ91                    1.00   0.02  0.00  0.00  0.98  0.00  0.00  0.00  0.94  0.00
  GQ92                    1.00   0.02  0.00  0.00  0.90  0.09  0.00  0.00  0.06  0.00
  GQ93                    1.00   0.02  0.00  0.00  0.98  0.00  0.00  0.00  0.84  0.00
  GQ94                    1.00   0.02  0.00  0.00  0.47  0.52  0.00  0.00  0.02  0.00
  GQ95                    1.00   0.02  0.00  0.00  0.98  0.00  0.00  0.00  0.94  0.00
  GQ96                    1.00   0.02  0.00  0.00  0.98  0.00  0.00  0.00  0.47  0.00
  GQ97                    1.00   0.02  0.00  0.00  0.02  0.97  0.00  0.00  0.41  0.00
  GQ98                    1.00   0.02  0.00  0.00  0.98  0.00  0.00  0.00  0.77  0.00
  GQ99                    1.00   0.02  0.00  0.00  0.98  0.00  0.00  0.00  0.94  0.00
  GQ100                   1.00   0.02  0.00  0.00  0.02  0.97  0.00  0.00  0.00  0.00
  GQ101                   1.00   0.02  0.00  0.00  0.98  0.01  0.00  0.00  0.94  0.00
  GQ102                   1.00   0.02  0.00  0.00  0.77  0.21  0.00  0.00  0.94  0.00
  GQ103                   1.00   0.02  0.00  0.00  0.98  0.00  0.00  0.00  0.87  0.00
  GQ104                   1.00   0.02  0.00  0.00  0.70  0.29  0.00  0.00  0.94  0.00
  GQ105                   1.00   0.02  0.00  0.00  0.98  0.00  0.00  0.00  0.11  0.00
  GQ106                   1.00   0.02  0.00  0.00  0.98  0.01  0.00  0.00  0.94  0.00
  GQ107                   1.00   0.02  0.00  0.00  0.56  0.42  0.00  0.00  0.82  0.00
  GQ108                   1.00   0.02  0.00  0.00  0.98  0.00  0.00  0.00  0.13  0.00
  GQ109                   1.00   0.02  0.00  0.00  0.93  0.05  0.00  0.00  0.94  0.00
  GQ110                   1.00   0.02  0.00  0.00  0.98  0.00  0.00  0.00  0.94  0.00
  GQ111                   1.00   0.02  0.00  0.00  0.98  0.01  0.00  0.00  0.94  0.00
  GQ112                   1.00   0.02  0.00  0.00  0.02  0.97  0.00  0.00  0.93  0.00
  GQ113                   1.00   0.02  0.00  0.00  0.00  0.98  0.00  0.00  0.92  0.00
  GQ114                   1.00   0.02  0.00  0.00  0.98  0.00  0.00  0.00  0.12  0.00
  GQ115                   1.00   0.02  0.00  0.00  0.97  0.01  0.00  0.00  0.94  0.00
  GQ116                   1.00   0.02  0.00  0.00  0.98  0.00  0.00  0.00  0.94  0.00
  GQ117                   1.00   0.02  0.00  0.00  0.00  0.98  0.00  0.00  0.00  0.00
  GQ118                   1.00   0.02  0.00  0.00  0.27  0.71  0.00  0.00  0.94  0.00
  GQ119                   1.00   0.02  0.00  0.00  0.72  0.27  0.00  0.00  0.77  0.00
  GQ120                   1.00   0.02  0.05  0.00  0.93  0.00  0.00  0.00  0.00  0.00
  GQ121                   1.00   0.02  0.00  0.00  0.98  0.00  0.00  0.00  0.12  0.00
  GQ122                   1.00   0.02  0.01  0.00  0.95  0.03  0.00  0.00  0.94  0.00
  GQ123                   1.00   0.02  0.00  0.00  0.95  0.03  0.00  0.00  0.94  0.00
  GQ124                   1.00   0.02  0.01  0.00  0.97  0.01  0.00  0.00  0.94  0.00
  GQ125                   1.00   0.02  0.00  0.00  0.98  0.01  0.00  0.00  0.94  0.00
  GQ126                   1.00   0.02  0.00  0.00  0.98  0.00  0.00  0.00  0.94  0.00
  GQ127                   1.00   0.02  0.00  0.00  0.98  0.00  0.00  0.00  0.61  0.00
  GQ128                   1.00   0.02  0.00  0.00  0.24  0.74  0.00  0.00  0.90  0.00
  GQ129                   1.00   0.02  0.00  0.00  0.98  0.00  0.00  0.00  0.51  0.00
  GQ130                   1.00   0.02  0.00  0.00  0.84  0.14  0.00  0.00  0.51  0.00
  GQ131                   1.00   0.02  0.00  0.00  0.74  0.24  0.00  0.00  0.79  0.00
  
  
  *************************
  Conduit Surcharge Summary
  *************************
  
  ----------------------------------------------------------------------------
                                                           Hours        Hours 
                         --------- Hours Full --------   Above Full   Capacity
  Conduit                Both Ends  Upstream  Dnstream   Normal Flow   Limited
  ----------------------------------------------------------------------------
  GQ4                         6.16      6.16     13.86      0.01         0.01
  GQ5                         1.66      1.66     13.79      0.01         0.01
  GQ6                         0.01      0.01      1.66      0.01         0.01
  GQ7                         2.89      2.89      5.07      0.01         0.01
  GQ8                         0.01      0.01      2.89      0.01         0.01
  GQ9                         0.01      0.01     14.15      0.01         0.01
  GQ10                        6.78      6.78     14.24      0.21         0.01
  GQ12                        0.01      0.01     13.36      0.01         0.01
  GQ13                        0.01      0.01      5.47      0.01         0.01
  GQ18                        0.01      0.01     11.23     12.35         0.01
  GQ20                        0.01      0.01      1.23      0.01         0.01
  GQ21                        0.01      0.01      1.23      0.01         0.01
  GQ24                        0.01      0.01     14.01      0.01         0.01
  GQ27                        0.01      0.01     13.73      0.01         0.01
  GQ28                        0.01      0.01     13.81      0.01         0.01
  GQ29                       13.63     13.63     13.81      0.01         0.01
  GQ30                       13.73     13.73     13.89      0.01         0.01
  GQ31                        0.01      0.01     14.28      0.01         0.01
  GQ32                        0.01      1.97      0.01      1.88         0.01
  GQ33                        1.97      1.97     14.28      0.01         0.01
  GQ34                        0.01      0.01      1.97      0.01         0.01
  GQ35                        1.87      1.87      1.97      0.05         0.01
  GQ36                        1.87      1.87      1.89      1.99         1.87
  GQ37                        0.01      0.01     14.10      0.01         0.01
  GQ38                        0.01      0.01     14.10      0.01         0.01
  GQ39                        0.01      0.01     13.36      0.01         0.01
  GQ41                        0.01      0.01     13.80      0.01         0.01
  GQ42                        2.79      2.79     13.85      0.01         0.01
  GQ43                        1.96      1.96      2.79      0.12         0.01
  GQ44                        6.48      6.48     11.23      0.01         0.01
  GQ45                        0.01      0.01      4.46      0.01         0.01
  GQ46                        4.46      4.46      6.48      0.01         0.01
  GQ47                        0.01      0.01     13.87      0.01         0.01
  GQ48                        0.01      0.01     13.95      0.01         0.01
  GQ49                        0.01      0.01     13.95      0.01         0.01
  GQ52                        0.01      0.01     13.63      0.01         0.01
  GQ53                        2.69      2.69     13.89      0.01         0.01
  GQ54                        0.01      0.01     13.97      0.01         0.01
  GQ55                        0.01      0.01     13.97      0.01         0.01
  GQ56                        2.61      2.61      2.89      0.37         0.16
  GQ57                        0.01      0.01      2.61      0.01         0.01
  GQ58                        0.01      0.01     13.74      0.01         0.01
  GQ59                        2.79      2.79     13.74      0.01         0.01
  GQ60                        1.65      1.65      2.96      0.01         0.01
  GQ61                        0.01      0.01     13.45      0.01         0.01
  GQ62                        0.01      0.01     13.50      0.01         0.01
  GQ63                        0.01      0.01     13.53      0.01         0.01
  GQ66                        0.01      0.01     13.55      0.01         0.01
  GQ67                       13.47     13.47     13.51      0.01         0.01
  GQ68                        0.01      0.01     13.65      0.01         0.01
  GQ69                        0.01      0.01     13.84      0.01         0.01
  GQ75                        0.01      0.01     13.65      0.01         0.01
  GQ78                        1.91      1.91     14.05      0.01         0.01
  GQ79                        0.01      0.01     14.05      0.01         0.01
  GQ80                        1.91      1.91     12.67      0.01         0.01
  GQ81                       12.59     12.67     13.36     11.44         4.90
  GQ82                        0.01      0.01     13.36      0.01         0.01
  GQ84                        0.01      0.01      2.91      0.01         0.01
  GQ85                        0.01      0.01     14.33      0.01         0.01
  GQ86                        0.01      0.01     13.88      0.01         0.01
  GQ87                        0.01      0.01     13.88      0.01         0.01
  GQ88                        0.01      0.01     13.91      0.01         0.01
  GQ89                        0.01      0.01     13.71      0.01         0.01
  GQ90                        0.01      0.01     13.62      0.01         0.01
  GQ91                        0.01      0.01     13.76      0.01         0.01
  GQ93                        0.01      0.01      1.89      0.01         0.01
  GQ94                        1.89      1.89      1.96      1.98         1.79
  GQ95                        0.01      0.01     13.96      0.01         0.01
  GQ98                        0.01      0.01     13.84      0.01         0.01
  GQ99                        0.01      0.01     13.52      0.01         0.01
  GQ101                       0.01      0.01     13.76      0.01         0.01
  GQ102                       0.01      0.01     13.83      0.01         0.01
  GQ103                       0.01      0.01     13.93      0.01         0.01
  GQ104                       0.01      0.01     13.93      0.01         0.01
  GQ105                      13.78     13.78     13.83     13.38         0.01
  GQ106                       0.01      0.01     13.81      0.01         0.01
  GQ107                       0.01      0.01     13.81      0.01         0.01
  GQ108                      11.79     11.79     13.78      0.01         0.01
  GQ110                       0.01      0.01     13.65      0.01         0.01
  GQ111                       0.01      0.01     13.77      0.01         0.01
  GQ114                       0.01      0.01     13.93      0.01         0.01
  GQ116                       0.01      0.01     13.87      0.01         0.01
  GQ119                       2.15      2.15     14.00      0.01         0.01
  GQ120                       0.01      0.01     13.91      0.01         0.01
  GQ121                      13.80     13.80     14.00      0.01         0.01
  GQ122                       0.01      0.01     13.80      0.01         0.01
  GQ123                       0.01      0.01     13.82      0.01         0.01
  GQ125                       0.01      0.01     13.76      0.01         0.01
  GQ126                       0.01      0.01     13.76      0.01         0.01
  GQ127                       1.96      1.96      2.15      0.04         0.05
  GQ128                       0.01      0.01      1.87      0.01         0.01
  GQ129                       5.07      5.07     14.01      0.01         0.01
  GQ130                       5.62      5.62     14.45      0.01         0.01
  GQ131                       0.01      0.01     14.31      0.01         0.01
  

  Analysis begun on:  Wed Mar 29 16:31:36 2023
  Analysis ended on:  Wed Mar 29 16:32:24 2023
  Total elapsed time: 00:00:48