
  OWA STORM WATER MANAGEMENT MODEL - VERSION v5.1.14 (OWA 2022-07-31)
  --------------------------------------------------------------

  INP file created by DSDAConvertToSwmmTools 
  version 0.0.1 EcoVista 
  Title/Notes: 
  
  
  *********************************************************
  NOTE: The summary statistics displayed in this report are
  based on results found at every computational time step,  
  not just on results from each reporting time step.
  *********************************************************
  
  ****************
  Analysis Options
  ****************
  Flow Units ............... CMS
  Process Models:
    Rainfall/Runoff ........ YES
    RDII ................... NO
    Snowmelt ............... NO
    Groundwater ............ NO
    Flow Routing ........... YES
    Ponding Allowed ........ NO
    Water Quality .......... NO
  Infiltration Method ...... GREEN_AMPT
  Flow Routing Method ...... DYNWAVE
  Surcharge Method ......... EXTRAN
  Starting Date ............ 07/15/2020 00:00:00
  Ending Date .............. 07/16/2020 01:00:00
  Antecedent Dry Days ...... 0.0
  Report Time Step ......... 00:30:00
  Wet Time Step ............ 00:05:00
  Dry Time Step ............ 01:00:00
  Routing Time Step ........ 30.00 sec
  Variable Time Step ....... YES
  Maximum Trials ........... 8
  Number of Threads ........ 1
  Head Tolerance ........... 0.001500 m
  
  
  **************************        Volume         Depth
  Runoff Quantity Continuity     hectare-m            mm
  **************************     ---------       -------
  Total Precipitation ......       170.251        42.600
  Evaporation Loss .........         9.047         2.264
  Infiltration Loss ........        45.499        11.385
  Surface Runoff ...........       108.131        27.056
  Final Storage ............         7.729         1.934
  Continuity Error (%) .....        -0.091
  
  
  **************************        Volume        Volume
  Flow Routing Continuity        hectare-m      10^6 ltr
  **************************     ---------     ---------
  Dry Weather Inflow .......         0.000         0.000
  Wet Weather Inflow .......       108.027      1080.281
  Groundwater Inflow .......         0.000         0.000
  RDII Inflow ..............         0.000         0.000
  External Inflow ..........         0.000         0.000
  External Outflow .........        10.478       104.782
  Flooding Loss ............        96.014       960.145
  Evaporation Loss .........         0.000         0.000
  Exfiltration Loss ........         0.000         0.000
  Initial Stored Volume ....         0.000         0.000
  Final Stored Volume ......         1.370        13.699
  Continuity Error (%) .....         0.153
  
  
  *************************
  Highest Continuity Errors
  *************************
  Node jd51 (5.05%)
  Node jd64 (4.09%)
  Node jd59 (4.02%)
  Node jd31 (3.73%)
  Node jd55 (3.60%)
  
  
  ***************************
  Time-Step Critical Elements
  ***************************
  Link GQ73 (98.53%)
  
  
  ********************************
  Highest Flow Instability Indexes
  ********************************
  Link GQ67 (24)
  Link GQ29 (10)
  Link GQ121 (8)
  Link GQ114 (7)
  Link GQ44 (2)
  
  
  *************************
  Routing Time Step Summary
  *************************
  Minimum Time Step           :     4.41 sec
  Average Time Step           :     9.79 sec
  Maximum Time Step           :    30.00 sec
  Percent in Steady State     :     0.00
  Average Iterations per Step :     3.52
  Percent Not Converging      :    12.55
  
  
  ***************************
  Subcatchment Runoff Summary
  ***************************
  
  ------------------------------------------------------------------------------------------------------------------------------
                            Total      Total      Total      Total     Imperv       Perv      Total       Total     Peak  Runoff
                           Precip      Runon       Evap      Infil     Runoff     Runoff     Runoff      Runoff   Runoff   Coeff
  Subcatchment                 mm         mm         mm         mm         mm         mm         mm    10^6 ltr      CMS
  ------------------------------------------------------------------------------------------------------------------------------
  1                         42.60       0.00       1.36      23.87      16.38       0.00      16.38        6.48     0.57   0.384
  2                         42.60       0.00       2.43       9.07      28.89       0.00      28.89       26.12     2.31   0.678
  3                         42.60       0.00       2.53       7.77      30.23       0.00      30.23       12.10     1.07   0.710
  4                         42.60       0.00       2.61       6.68      31.32       0.00      31.32        2.63     0.23   0.735
  5                         42.60       0.00       2.30      10.85      27.69       0.00      27.69        3.42     0.30   0.650
  6                         42.60       0.00       2.20      12.21      26.55       0.00      26.55        2.47     0.22   0.623
  7                         42.60       0.00       2.30      10.90      27.41       0.00      27.41       11.95     1.06   0.643
  8                         42.60       0.00       2.92       2.38      34.87       0.00      34.87        4.85     0.43   0.818
  9                         42.60       0.00       3.00       1.19      35.95       0.00      35.95        4.21     0.37   0.844
  10                        42.60       0.00       2.59       6.93      30.99       0.00      30.99        6.98     0.62   0.727
  11                        42.60       0.00       2.79       4.07      33.37       0.00      33.37       16.54     1.46   0.783
  12                        42.60       0.00       2.20      12.25      26.37       0.00      26.37       12.87     1.14   0.619
  13                        42.60       0.00       2.76       4.59      32.94       0.00      32.94       14.90     1.32   0.773
  14                        42.60       0.00       2.75       4.65      33.00       0.00      33.00        6.23     0.55   0.775
  15                        42.60       0.00       2.55       7.49      30.47       0.00      30.47       10.30     0.91   0.715
  16                        42.60       0.00       2.64       6.19      31.56       0.00      31.56        9.32     0.82   0.741
  17                        42.60       0.00       2.47       8.50      29.59       0.00      29.59       12.38     1.09   0.695
  18                        42.60       0.00       2.85       3.35      33.98       0.00      33.98       14.03     1.24   0.798
  19                        42.60       0.00       2.84       3.50      33.83       0.00      33.83        7.61     0.67   0.794
  20                        42.60       0.00       2.82       3.74      33.48       0.00      33.48       17.96     1.59   0.786
  21                        42.60       0.00       3.00       1.25      35.78       0.00      35.78       11.23     0.99   0.840
  22                        42.60       0.00       2.94       2.01      35.09       0.00      35.09        4.32     0.38   0.824
  23                        42.60       0.00       2.71       5.21      32.32       0.00      32.32       18.50     1.64   0.759
  24                        42.60       0.00       2.62       6.50      31.19       0.00      31.19        5.53     0.49   0.732
  25                        42.60       0.00       2.80       4.00      33.52       0.00      33.52        6.79     0.60   0.787
  26                        42.60       0.00       2.38       9.72      28.36       0.00      28.36        9.96     0.88   0.666
  27                        42.60       0.00       2.86       3.19      33.95       0.00      33.95       14.35     1.27   0.797
  28                        42.60       0.00       2.92       2.35      34.76       0.00      34.76       16.43     1.46   0.816
  29                        42.60       0.00       2.61       6.61      31.30       0.00      31.30        7.31     0.64   0.735
  30                        42.60       0.00       2.98       1.44      35.86       0.00      35.86        2.57     0.23   0.842
  31                        42.60       0.00       3.02       0.90      36.13       0.00      36.13        7.96     0.70   0.848
  32                        42.60       0.00       2.95       1.90      35.23       0.00      35.23       15.22     1.35   0.827
  33                        42.60       0.00       2.99       1.39      35.64       0.00      35.64       12.56     1.11   0.837
  34                        42.60       0.00       2.78       4.31      33.17       0.00      33.17        9.72     0.86   0.779
  35                        42.60       0.00       2.86       3.21      34.11       0.00      34.11       14.15     1.25   0.801
  36                        42.60       0.00       2.35      10.15      28.22       0.00      28.22       11.10     0.98   0.662
  37                        42.60       0.00       2.92       2.30      34.89       0.00      34.89        7.74     0.69   0.819
  38                        42.60       0.00       2.74       4.82      32.76       0.00      32.76       12.49     1.10   0.769
  39                        42.60       0.00       2.47       8.47      29.65       0.00      29.65       12.52     1.11   0.696
  40                        42.60       0.00       2.76       4.61      32.93       0.00      32.93        7.53     0.67   0.773
  41                        42.60       0.00       2.82       3.75      33.75       0.00      33.75        6.66     0.59   0.792
  42                        42.60       0.00       2.81       3.79      33.48       0.00      33.48        8.27     0.73   0.786
  43                        42.60       0.00       2.37       9.96      28.24       0.00      28.24       22.32     1.97   0.663
  44                        42.60       0.00       2.53       7.77      30.11       0.00      30.11       14.55     1.29   0.707
  45                        42.60       0.00       2.37       9.88      28.35       0.00      28.35       20.52     1.81   0.666
  46                        42.60       0.00       2.29      11.01      27.52       0.00      27.52       13.76     1.21   0.646
  47                        42.60       0.00       2.41       9.42      28.74       0.00      28.74       33.51     2.96   0.675
  48                        42.60       0.00       2.88       2.95      34.14       0.00      34.14       19.81     1.76   0.801
  49                        42.60       0.00       2.63       6.31      31.27       0.00      31.27       21.17     1.87   0.734
  50                        42.60       0.00       2.92       2.40      34.47       0.00      34.47       13.55     1.20   0.809
  51                        42.60       0.00       2.79       4.14      33.03       0.00      33.03        6.18     0.55   0.775
  52                        42.60       0.00       1.36      23.90      16.40       0.00      16.40       16.83     1.47   0.385
  53                        42.60       0.00       1.96      15.51      23.64       0.00      23.64       25.18     2.21   0.555
  54                        42.60       0.00       2.42       9.17      29.03       0.00      29.03        7.08     0.63   0.681
  55                        42.60       0.00       1.39      23.46      16.77       0.00      16.77       13.23     1.16   0.394
  56                        42.60       0.00       0.52      35.38       6.42       0.00       6.42        5.23     0.45   0.151
  57                        42.60       0.00       2.75       4.74      32.62       0.00      32.62       27.10     2.40   0.766
  58                        42.60       0.00       2.54       7.52      30.44       0.00      30.44        5.01     0.44   0.715
  59                        42.60       0.00       2.48       8.36      29.85       0.00      29.85        3.80     0.33   0.701
  60                        42.60       0.00       0.93      29.77      11.31       0.00      11.31        3.24     0.28   0.265
  61                        42.60       0.00       1.45      22.64      17.38       0.00      17.38        6.55     0.58   0.408
  62                        42.60       0.00       2.01      14.82      24.08       0.00      24.08       28.22     2.49   0.565
  63                        42.60       0.00       2.75       4.70      32.56       0.00      32.56       62.96     5.57   0.764
  64                        42.60       0.00       2.05      14.32      24.64       0.00      24.64        5.29     0.47   0.578
  65                        42.60       0.00       2.79       4.16      33.05       0.00      33.05       22.22     1.97   0.776
  66                        42.60       0.00       2.20      12.32      26.19       0.00      26.19        6.67     0.59   0.615
  67                        42.60       0.00       2.05      14.30      24.71       0.00      24.71        7.99     0.70   0.580
  68                        42.60       0.00       2.46       8.65      29.51       0.00      29.51        3.28     0.29   0.693
  69                        42.60       0.00       1.44      22.67      17.54       0.00      17.54        5.61     0.49   0.412
  70                        42.60       0.00       2.03      14.56      24.35       0.00      24.35       20.03     1.77   0.572
  71                        42.60       0.00       2.51       7.96      30.10       0.00      30.10        3.69     0.33   0.707
  72                        42.60       0.00       2.65       6.08      31.72       0.00      31.72        3.95     0.35   0.745
  73                        42.60       0.00       2.40       9.51      28.84       0.00      28.84        4.79     0.42   0.677
  74                        42.60       0.00       2.29      11.06      27.48       0.00      27.48        5.91     0.52   0.645
  75                        42.60       0.00       2.54       7.55      30.47       0.00      30.47        4.39     0.39   0.715
  76                        42.60       0.00       2.67       5.72      32.08       0.00      32.08        3.11     0.27   0.753
  77                        42.60       0.00       2.85       3.28      34.11       0.00      34.11        3.69     0.33   0.801
  78                        42.60       0.00       2.75       4.66      32.89       0.00      32.89        3.61     0.32   0.772
  79                        42.60       0.00       1.21      25.96      14.62       0.00      14.62       15.50     1.35   0.343
  80                        42.60       0.00       2.27      11.24      27.14       0.00      27.14       16.99     1.50   0.637
  81                        42.60       0.00       2.31      10.75      27.56       0.00      27.56       12.01     1.06   0.647
  82                        42.60       0.00       2.21      12.10      26.40       0.00      26.40       24.21     2.14   0.620
  83                        42.60       0.00       2.77       4.47      33.13       0.00      33.13        4.05     0.36   0.778
  84                        42.60       0.00       2.61       6.62      31.21       0.00      31.21        3.73     0.33   0.733
  85                        42.60       0.00       3.07       0.32      36.73       0.00      36.73        3.42     0.30   0.862
  86                        42.60       0.00       2.83       3.60      33.84       0.00      33.84        4.98     0.44   0.794
  87                        42.60       0.00       3.02       0.91      36.07       0.00      36.07        4.74     0.42   0.847
  88                        42.60       0.00       2.70       5.31      32.41       0.00      32.41        3.10     0.27   0.761
  89                        42.60       0.00       2.84       3.42      34.02       0.00      34.02        6.55     0.58   0.799
  90                        42.60       0.00       3.09       0.01      37.08       0.00      37.08        0.43     0.04   0.871
  91                        42.60       0.00       2.57       7.14      30.57       0.00      30.57        6.66     0.59   0.718
  92                        42.60       0.00       2.85       3.31      34.08       0.00      34.08        4.26     0.38   0.800
  93                        42.60       0.00       2.32      10.58      27.79       0.00      27.79       14.22     1.26   0.652
  94                        42.60       0.00       2.09      13.80      25.23       0.00      25.23        1.77     0.15   0.592
  95                        42.60       0.00       3.09       0.05      36.96       0.00      36.96        0.81     0.07   0.868
  96                        42.60       0.00       2.49       8.25      29.88       0.00      29.88        3.65     0.32   0.701
  97                        42.60       0.00       3.02       0.90      36.18       0.00      36.18        3.59     0.32   0.849
  98                        42.60       0.00       2.51       8.05      30.07       0.00      30.07        3.71     0.33   0.706
  99                        42.60       0.00       1.24      25.49      15.06       0.00      15.06        5.59     0.49   0.353
  100                       42.60       0.00       1.38      23.57      16.73       0.00      16.73        4.29     0.37   0.393
  101                       42.60       0.00       1.41      23.11      17.10       0.00      17.10        8.38     0.73   0.401
  102                       42.60       0.00       2.30      10.83      27.61       0.00      27.61        6.73     0.59   0.648
  103                       42.60       0.00       0.77      31.98       9.41       0.00       9.41        3.42     0.30   0.221
  104                       42.60       0.00       0.52      35.42       6.35       0.00       6.35        6.16     0.53   0.149
  105                       42.60       0.00       2.54       7.56      30.49       0.00      30.49        3.99     0.35   0.716
  106                       42.60       0.00       1.38      23.62      16.66       0.00      16.66        4.06     0.36   0.391
  
  
  ******************
  Node Depth Summary
  ******************
  
  ---------------------------------------------------------------------------------
                                 Average  Maximum  Maximum  Time of Max    Reported
                                   Depth    Depth      HGL   Occurrence   Max Depth
  Node                 Type       Meters   Meters   Meters  days hr:min      Meters
  ---------------------------------------------------------------------------------
  jd1                  JUNCTION     0.08     0.20   273.20     0  03:00        0.20
  jd2                  JUNCTION     0.35     3.00   270.00     0  02:20        2.93
  jd3                  JUNCTION     2.91     3.00   266.00     0  01:35        3.00
  jd4                  JUNCTION     0.58     3.00   270.00     0  01:53        3.00
  jd5                  JUNCTION     0.06     0.14   274.14     0  03:00        0.14
  jd6                  JUNCTION     0.07     0.18   275.18     0  03:00        0.18
  jd7                  JUNCTION     0.24     0.50   264.60     0  03:00        0.50
  jd8                  JUNCTION     1.17     3.00   267.00     0  01:37        3.00
  jd9                  JUNCTION     0.69     3.00   268.00     0  01:42        3.00
  jd10                 JUNCTION     2.93     3.00   273.00     0  01:30        3.00
  jd11                 JUNCTION     0.06     0.16   282.16     0  03:00        0.16
  jd12                 JUNCTION     2.93     3.00   272.00     0  01:28        3.00
  jd13                 JUNCTION     0.07     0.20   289.20     0  03:00        0.20
  jd14                 JUNCTION     0.23     3.00   283.00     0  02:28        1.91
  jd15                 JUNCTION     0.17     0.51   278.51     0  03:00        0.51
  jd16                 JUNCTION     0.19     0.54   274.54     0  03:00        0.54
  jd17                 JUNCTION     1.59     3.00   278.80     0  01:41        3.00
  jd18                 JUNCTION     0.30     3.00   282.00     0  02:29        3.00
  jd19                 JUNCTION     0.58     3.00   270.00     0  01:47        3.00
  jd20                 JUNCTION     0.15     0.31   273.31     0  03:00        0.31
  jd21                 JUNCTION     2.91     3.00   273.00     0  01:34        3.00
  jd22                 JUNCTION     1.29     3.00   275.00     0  01:38        3.00
  jd23                 JUNCTION     0.15     0.47   278.47     0  03:00        0.47
  jd24                 JUNCTION     0.09     0.23   285.23     0  03:00        0.23
  jd25                 JUNCTION     0.15     0.42   279.42     0  03:00        0.42
  jd26                 JUNCTION     0.31     3.00   288.00     0  02:23        3.00
  jd27                 JUNCTION     0.13     0.39   291.39     0  03:00        0.39
  jd28                 JUNCTION     2.93     3.00   290.00     0  01:26        3.00
  jd29                 JUNCTION     0.06     0.16   299.16     0  03:00        0.16
  jd30                 JUNCTION     0.08     0.23   290.23     0  03:00        0.23
  jd31                 JUNCTION     1.01     3.00   275.00     0  01:43        1.47
  jd32                 JUNCTION     2.93     3.00   275.00     0  01:29        3.00
  jd33                 JUNCTION     0.12     0.33   289.33     0  03:00        0.33
  jd34                 JUNCTION     0.14     0.42   294.42     0  03:00        0.42
  jd35                 JUNCTION     2.94     3.00   292.00     0  01:21        3.00
  jd36                 JUNCTION     0.39     3.00   302.00     0  02:13        3.00
  jd37                 JUNCTION     0.38     3.00   306.00     0  02:13        3.00
  jd38                 JUNCTION     0.24     0.77   297.77     0  03:00        0.77
  jd39                 JUNCTION     2.92     3.00   297.00     0  01:35        3.00
  jd40                 JUNCTION     0.55     3.00   302.00     0  02:02        3.00
  jd41                 JUNCTION     2.89     3.00   296.00     0  01:50        3.00
  jd42                 JUNCTION     0.12     0.34   305.34     0  03:00        0.34
  jd43                 JUNCTION     0.52     3.00   300.00     0  02:01        3.00
  jd44                 JUNCTION     0.55     3.00   286.00     0  02:02        3.00
  jd45                 JUNCTION     2.92     3.00   282.00     0  01:33        3.00
  jd46                 JUNCTION     0.17     0.50   275.50     0  03:00        0.50
  jd47                 JUNCTION     0.10     0.26   315.26     0  03:00        0.26
  jd48                 JUNCTION     0.07     0.18   325.18     0  03:00        0.18
  jd49                 JUNCTION     0.16     0.45   289.45     0  03:00        0.45
  jd50                 JUNCTION     2.93     3.00   278.00     0  01:25        3.00
  jd51                 JUNCTION     2.88     3.00   313.00     0  01:51        3.00
  jd52                 JUNCTION     0.35     3.00   326.00     0  02:21        2.00
  jd53                 JUNCTION     0.42     3.00   325.00     0  02:17        2.97
  jd54                 JUNCTION     0.18     0.49   326.49     0  03:00        0.49
  jd55                 JUNCTION     1.34     3.00   325.00     0  01:48        3.00
  jd56                 JUNCTION     0.12     0.34   327.34     0  03:00        0.34
  jd59                 JUNCTION     2.87     3.00   320.80     0  01:54        3.00
  jd60                 JUNCTION     2.93     3.00   319.00     0  01:27        3.00
  jd61                 JUNCTION     0.09     0.24   329.24     0  03:00        0.24
  jd62                 JUNCTION     0.04     0.11   335.11     0  03:00        0.11
  jd63                 JUNCTION     0.04     0.12   324.12     0  03:00        0.12
  jd64                 JUNCTION     2.68     3.00   321.00     0  01:55        2.86
  jd65                 JUNCTION     0.75     3.00   307.00     0  01:40        3.00
  jd66                 JUNCTION     2.92     3.00   304.00     0  01:31        3.00
  jd69                 JUNCTION     0.14     0.40   333.40     0  03:00        0.40
  jd79                 JUNCTION     2.70     3.00   274.00     0  01:27        3.00
  jd80                 JUNCTION     1.71     3.00   279.00     0  01:31        3.00
  jd81                 JUNCTION     0.09     0.25   288.25     0  03:00        0.25
  jd83                 JUNCTION     2.94     3.00   323.00     0  01:19        3.00
  jd84                 JUNCTION     0.14     0.48   323.48     0  03:00        0.48
  jd85                 JUNCTION     2.93     3.00   324.00     0  01:29        3.00
  jd87                 JUNCTION     2.93     3.00   322.00     0  01:29        3.00
  jd89                 JUNCTION     0.10     0.27   324.27     0  03:00        0.27
  jd90                 JUNCTION     0.09     0.24   328.24     0  03:00        0.24
  jd92                 JUNCTION     0.09     0.24   326.24     0  03:00        0.24
  jd93                 JUNCTION     0.42     3.00   327.00     0  02:15        3.00
  jd94                 JUNCTION     0.21     3.00   329.20     0  02:30        1.56
  jd95                 JUNCTION     0.24     2.98   329.98     0  02:36        1.46
  jd96                 JUNCTION     2.94     3.00   308.00     0  01:24        3.00
  jd97                 JUNCTION     0.24     3.00   330.20     0  02:36        1.45
  jd98                 JUNCTION     0.12     0.33   329.33     0  03:00        0.33
  jd99                 JUNCTION     2.92     3.00   327.00     0  01:31        3.00
  jd101                JUNCTION     0.07     0.18   321.18     0  03:00        0.18
  jd102                JUNCTION     0.14     0.42   324.42     0  03:00        0.42
  jd103                JUNCTION     0.07     0.19   318.19     0  03:00        0.19
  jd106                JUNCTION     2.90     3.00   287.00     0  01:42        3.00
  jd107                JUNCTION     0.13     0.36   332.36     0  03:00        0.36
  jd108                JUNCTION     1.11     1.81   327.81     0  01:27        1.41
  jd109                JUNCTION     0.10     0.28   343.28     0  03:00        0.28
  jd110                JUNCTION     2.93     3.00   327.00     0  01:28        3.00
  jd111                JUNCTION     0.05     0.12   344.12     0  03:00        0.12
  jd112                JUNCTION     0.06     0.15   334.15     0  03:00        0.15
  jd113                JUNCTION     0.06     0.17   348.17     0  03:00        0.17
  jd114                JUNCTION     2.92     3.00   317.00     0  01:31        3.00
  jd117                JUNCTION     1.09     3.00   319.00     0  01:35        2.17
  jd118                JUNCTION     0.06     0.15   330.15     0  03:00        0.15
  jd120                JUNCTION     0.10     0.27   327.27     0  03:00        0.27
  jd121                JUNCTION     0.10     0.28   320.28     0  03:00        0.28
  jd122                JUNCTION     2.92     3.00   276.00     0  01:33        3.00
  jd123                JUNCTION     2.89     3.00   276.20     0  01:36        3.00
  jd124                JUNCTION     2.95     3.00   271.00     0  01:16        3.00
  jd125                JUNCTION     0.57     3.00   278.00     0  01:50        3.00
  jd126                JUNCTION     2.94     3.00   275.00     0  01:20        3.00
  jd135                JUNCTION     0.09     0.23   289.23     0  03:00        0.23
  jd136                JUNCTION     0.16     0.46   341.46     0  03:00        0.46
  psk1                 OUTFALL      0.06     0.15   279.15     0  03:00        0.15
  psk2                 OUTFALL      0.08     0.23   270.23     0  03:00        0.23
  psk3                 OUTFALL      0.19     0.54   271.54     0  03:00        0.54
  psk4                 OUTFALL      0.00     0.00   280.00     0  00:00        0.00
  psk5                 OUTFALL      0.08     0.20   263.20     0  03:00        0.20
  psk6                 OUTFALL      0.06     0.14   259.14     0  03:00        0.14
  psk7                 OUTFALL      0.24     0.50   262.50     0  03:00        0.50
  psk8                 OUTFALL      0.00     0.00   317.00     0  00:00        0.00
  
  
  *******************
  Node Inflow Summary
  *******************
  
  -------------------------------------------------------------------------------------------------
                                  Maximum  Maximum                  Lateral       Total        Flow
                                  Lateral    Total  Time of Max      Inflow      Inflow     Balance
                                   Inflow   Inflow   Occurrence      Volume      Volume       Error
  Node                 Type           CMS      CMS  days hr:min    10^6 ltr    10^6 ltr     Percent
  -------------------------------------------------------------------------------------------------
  jd1                  JUNCTION     0.569    0.905     0  03:00        6.48        10.6       0.136
  jd2                  JUNCTION     0.881    1.198     0  03:00        9.95        13.7       0.235
  jd3                  JUNCTION     1.057    2.765     0  03:00        11.9        38.4       1.047
  jd4                  JUNCTION     1.272    1.418     0  03:00        14.3        16.1       0.304
  jd5                  JUNCTION     0.372    0.626     0  03:00         4.2        7.36       0.055
  jd6                  JUNCTION     0.429    0.429     0  03:00        4.85        4.85       0.078
  jd7                  JUNCTION     0.217    2.122     0  03:00        2.46          40       0.143
  jd8                  JUNCTION     0.301    1.247     0  03:00        3.42        29.1       0.721
  jd9                  JUNCTION     0.231    1.299     0  03:00        2.63        27.3       0.190
  jd10                 JUNCTION     0.617    0.782     0  03:00        6.97        8.88       1.140
  jd11                 JUNCTION     0.910    0.910     0  03:00        10.3        10.3       0.079
  jd12                 JUNCTION     0.686    1.499     0  03:00        7.74        16.8       0.826
  jd13                 JUNCTION     1.242    1.242     0  03:00          14          14       0.076
  jd14                 JUNCTION     1.456    1.643     0  03:00        16.4        18.5       0.170
  jd15                 JUNCTION     0.600    1.441     0  03:00        6.78        15.1       0.490
  jd16                 JUNCTION     0.645    2.638     0  03:00         7.3        28.2       0.189
  jd17                 JUNCTION     1.348    3.047     0  03:00        15.2        46.4       1.592
  jd18                 JUNCTION     1.069    1.558     0  03:00        12.1        17.5       0.269
  jd19                 JUNCTION     0.992    1.790     0  03:00        11.2        26.9       0.157
  jd20                 JUNCTION     0.825    1.065     0  03:00        9.32        21.6       0.232
  jd21                 JUNCTION     0.382    2.506     0  03:00        4.31        36.6       0.919
  jd22                 JUNCTION     0.673    1.437     0  03:00         7.6          17       0.481
  jd23                 JUNCTION     0.666    1.935     0  03:00        7.52          21       0.144
  jd24                 JUNCTION     1.094    1.094     0  03:00        12.4        12.4       0.087
  jd25                 JUNCTION     0.860    1.250     0  03:00        9.72          14       0.191
  jd26                 JUNCTION     1.252    2.020     0  03:00        14.1        23.5       0.167
  jd27                 JUNCTION     1.288    1.962     0  03:00        14.5        23.9       0.176
  jd28                 JUNCTION     1.756    2.334     0  03:00        19.8        27.6       0.481
  jd29                 JUNCTION     0.705    0.705     0  03:00        7.96        7.96       0.037
  jd30                 JUNCTION     0.733    2.295     0  03:00        8.26        23.7       0.100
  jd31                 JUNCTION     0.490    1.078     0  01:43        5.53          12       3.876
  jd32                 JUNCTION     0.994    3.477     0  03:00        11.2        45.9       0.543
  jd33                 JUNCTION     0.979    1.686     0  03:00        11.1        18.6       0.090
  jd34                 JUNCTION     1.212    1.212     0  03:00        13.7        13.7       0.073
  jd35                 JUNCTION     1.105    3.044     0  03:00        12.5        41.6       0.315
  jd36                 JUNCTION     1.875    2.804     0  03:00        21.1          34       0.198
  jd37                 JUNCTION     1.972    1.972     0  03:00        22.3        22.3       0.140
  jd38                 JUNCTION     1.813    2.758     0  03:00        20.5        33.3       0.278
  jd39                 JUNCTION     1.256    3.807     0  03:00        14.2        58.6       0.867
  jd40                 JUNCTION     2.139    4.329     0  03:00        24.2        56.7       0.276
  jd41                 JUNCTION     1.503    5.128     0  03:00          17        67.7       3.242
  jd42                 JUNCTION     1.968    2.158     0  03:00        22.2        24.4       0.222
  jd43                 JUNCTION     2.213    4.010     0  03:00        25.2        43.9       0.311
  jd44                 JUNCTION     2.962    5.438     0  03:00        33.5        77.3       0.261
  jd45                 JUNCTION     1.198    3.423     0  03:00        13.5        49.9       0.646
  jd46                 JUNCTION     0.547    0.547     0  03:00        6.17        6.17       0.593
  jd47                 JUNCTION     1.768    1.768     0  03:00          20          20       0.018
  jd48                 JUNCTION     0.489    0.489     0  03:00        5.61        5.61       0.060
  jd49                 JUNCTION     2.399    2.399     0  03:00        27.1        27.1       0.158
  jd50                 JUNCTION     2.491    5.336     0  03:00        28.2        92.3       0.465
  jd51                 JUNCTION     0.521    2.398     0  03:00        5.91        27.2       5.324
  jd52                 JUNCTION     1.062    3.961     0  02:20          12        42.5       0.258
  jd53                 JUNCTION     0.590    2.574     0  02:14        6.66        34.2       0.146
  jd54                 JUNCTION     0.318    1.580     0  03:00        3.59        17.9       0.193
  jd55                 JUNCTION     0.579    2.014     0  03:00        6.55        21.7       3.736
  jd56                 JUNCTION     0.352    1.029     0  03:00        3.98        11.6       0.139
  jd59                 JUNCTION     0.349    1.732     0  03:00        3.95        19.2       4.189
  jd60                 JUNCTION     0.625    1.326     0  03:00        7.07        15.1       0.858
  jd61                 JUNCTION     0.701    0.789     0  03:00        7.98        8.98       0.103
  jd62                 JUNCTION     0.282    0.282     0  03:00        3.24        3.24       0.021
  jd63                 JUNCTION     0.388    0.388     0  03:00        4.39        4.39       0.051
  jd64                 JUNCTION     0.326    0.806     0  03:00        3.69        9.11       4.268
  jd65                 JUNCTION     5.568    5.568     0  03:00        62.9        62.9       0.120
  jd66                 JUNCTION     0.732    2.124     0  03:00        8.37        24.3       1.328
  jd69                 JUNCTION     1.354    1.392     0  03:00        15.5        15.9       0.126
  jd79                 JUNCTION     1.318    2.234     0  03:00        14.9        25.9       0.674
  jd80                 JUNCTION     1.464    2.072     0  03:00        16.5          23       0.651
  jd81                 JUNCTION     1.112    1.112     0  03:00        12.5        12.5       0.030
  jd83                 JUNCTION     1.159    1.408     0  03:00        13.2        17.6       0.490
  jd84                 JUNCTION     1.473    1.473     0  03:00        16.8        16.8       0.094
  jd85                 JUNCTION     0.335    0.548     0  03:00         3.8        6.24       1.370
  jd87                 JUNCTION     0.274    0.661     0  03:00         3.1        7.51       0.989
  jd89                 JUNCTION     0.320    0.320     0  03:00        3.61        3.61       0.133
  jd90                 JUNCTION     0.326    0.326     0  03:00        3.69        3.69       0.078
  jd92                 JUNCTION     0.274    0.274     0  03:00         3.1         3.1       0.059
  jd93                 JUNCTION     0.590    1.283     0  02:36        6.67        14.4       0.211
  jd94                 JUNCTION     0.038    0.705     0  02:36       0.425        7.75       0.209
  jd95                 JUNCTION     0.071    0.658     0  02:36       0.806        7.35       0.232
  jd96                 JUNCTION     0.534    0.713     0  03:00        6.15        8.16       1.169
  jd97                 JUNCTION     0.577    0.577     0  03:00        6.54        6.54       0.057
  jd98                 JUNCTION     0.322    0.322     0  03:00        3.65        3.65       0.083
  jd99                 JUNCTION     0.155    0.399     0  03:00        1.77        5.73       0.984
  jd101                JUNCTION     0.422    0.842     0  03:00        4.79        9.52       0.029
  jd102                JUNCTION     0.420    0.420     0  03:00        4.74        4.74       0.148
  jd103                JUNCTION     0.289    0.289     0  03:00        3.28        3.28       0.028
  jd106                JUNCTION     0.227    1.357     0  03:00        2.57        14.9       2.677
  jd107                JUNCTION     0.327    1.074     0  03:00         3.7        12.2       0.186
  jd108                JUNCTION     0.355    0.355     0  03:00        4.06        4.08       1.641
  jd109                JUNCTION     0.594    0.594     0  03:00        6.73        6.73       0.035
  jd110                JUNCTION     0.451    0.672     0  03:00        5.22        7.76       1.973
  jd111                JUNCTION     0.375    0.375     0  03:00        4.29        4.29       0.045
  jd112                JUNCTION     0.441    1.225     0  03:00        4.98          14       0.066
  jd113                JUNCTION     0.296    0.296     0  03:00        3.42        3.42      -0.012
  jd114                JUNCTION     0.358    3.736     0  03:00        4.05        50.4       0.617
  jd117                JUNCTION     0.329    1.080     0  03:00        3.72        12.4       1.270
  jd118                JUNCTION     0.302    0.302     0  03:00        3.41        3.41       0.005
  jd120                JUNCTION     0.377    0.377     0  03:00        4.26        4.26       0.058
  jd121                JUNCTION     0.465    0.465     0  03:00        5.29        5.29       0.082
  jd122                JUNCTION     1.105    4.117     0  03:00        12.5        66.2       0.843
  jd123                JUNCTION     1.136    3.399     0  03:00        12.9        66.8       1.033
  jd124                JUNCTION     1.638    2.712     0  03:00        18.5        46.7       0.123
  jd125                JUNCTION     1.592    3.267     0  03:00        17.9        54.1       0.118
  jd126                JUNCTION     2.311    3.112     0  03:00        26.1        36.2       0.281
  jd135                JUNCTION     0.588    0.588     0  03:00        6.65        6.65       0.047
  jd136                JUNCTION     0.487    0.784     0  03:00        5.58           9       0.182
  psk1                 OUTFALL      0.000    0.588     0  03:00           0        6.62       0.000
  psk2                 OUTFALL      0.000    1.725     0  03:00           0        17.5       0.000
  psk3                 OUTFALL      0.000    2.636     0  03:00           0        28.2       0.000
  psk4                 OUTFALL      0.000    0.000     0  00:00           0           0       0.000 ltr
  psk5                 OUTFALL      0.000    0.587     0  03:00           0        6.87       0.000
  psk6                 OUTFALL      0.000    0.480     0  03:00           0        5.64       0.000
  psk7                 OUTFALL      0.000    2.122     0  03:00           0          40       0.000
  psk8                 OUTFALL      0.000    0.000     0  00:00           0           0       0.000 ltr
  
  
  **********************
  Node Surcharge Summary
  **********************
  
  Surcharging occurs when water rises above the top of the highest conduit.
  ---------------------------------------------------------------------
                                               Max. Height   Min. Depth
                                   Hours       Above Crown    Below Rim
  Node                 Type      Surcharged         Meters       Meters
  ---------------------------------------------------------------------
  jd2                  JUNCTION        0.80          2.200        0.000
  jd3                  JUNCTION       23.41          2.200        0.000
  jd4                  JUNCTION        1.80          2.200        0.000
  jd8                  JUNCTION       11.73          2.200        0.000
  jd9                  JUNCTION        2.02          2.200        0.000
  jd10                 JUNCTION       23.50          2.400        0.000
  jd12                 JUNCTION       23.52          2.400        0.000
  jd14                 JUNCTION        0.58          2.400        0.000
  jd17                 JUNCTION       12.61          2.200        0.000
  jd18                 JUNCTION        0.60          2.000        0.000
  jd19                 JUNCTION        1.53          2.200        0.000
  jd21                 JUNCTION       23.42          2.200        0.000
  jd22                 JUNCTION       23.37          2.400        0.000
  jd26                 JUNCTION        0.69          2.400        0.000
  jd28                 JUNCTION       23.57          2.400        0.000
  jd31                 JUNCTION       23.27          2.200        0.000
  jd32                 JUNCTION       23.51          2.200        0.000
  jd35                 JUNCTION       23.64          2.400        0.000
  jd36                 JUNCTION        0.98          2.400        0.000
  jd37                 JUNCTION        0.92          2.400        0.000
  jd39                 JUNCTION       23.42          2.000        0.000
  jd40                 JUNCTION        1.41          2.200        0.000
  jd41                 JUNCTION       23.17          1.000        0.000
  jd43                 JUNCTION        1.20          2.200        0.000
  jd44                 JUNCTION        1.29          2.000        0.000
  jd45                 JUNCTION       23.45          2.000        0.000
  jd50                 JUNCTION       23.58          2.200        0.000
  jd51                 JUNCTION       23.14          1.350        0.000
  jd52                 JUNCTION        0.81          1.500        0.000
  jd53                 JUNCTION        0.93          1.800        0.000
  jd55                 JUNCTION        1.60          1.500        0.000
  jd59                 JUNCTION       23.09          1.500        0.000
  jd60                 JUNCTION       23.54          2.400        0.000
  jd64                 JUNCTION       23.10          1.800        0.000
  jd65                 JUNCTION        2.39          2.400        0.000
  jd66                 JUNCTION       23.48          2.200        0.000
  jd79                 JUNCTION       23.55          2.400        0.000
  jd80                 JUNCTION       14.31          2.400        0.000
  jd83                 JUNCTION       23.69          2.400        0.000
  jd85                 JUNCTION       23.52          2.400        0.000
  jd87                 JUNCTION       23.52          2.400        0.000
  jd93                 JUNCTION        1.02          2.200        0.000
  jd94                 JUNCTION        0.62          2.200        0.000
  jd95                 JUNCTION        0.45          2.184        0.016
  jd96                 JUNCTION       23.59          2.200        0.000
  jd97                 JUNCTION        0.43          2.200        0.000
  jd99                 JUNCTION       23.48          2.400        0.000
  jd106                JUNCTION       23.30          2.000        0.000
  jd108                JUNCTION       23.54          0.808        1.192
  jd110                JUNCTION       23.52          2.000        0.000
  jd114                JUNCTION       23.47          2.000        0.000
  jd117                JUNCTION       23.42          2.200        0.000
  jd122                JUNCTION       23.44          2.200        0.000
  jd123                JUNCTION       23.40          2.200        0.000
  jd124                JUNCTION       23.72          2.400        0.000
  jd125                JUNCTION        1.77          2.200        0.000
  jd126                JUNCTION       23.66          2.400        0.000
  
  
  *********************
  Node Flooding Summary
  *********************
  
  Flooding refers to all water that overflows a node, whether it ponds or not.
  --------------------------------------------------------------------------
                                                             Total   Maximum
                                 Maximum   Time of Max       Flood    Ponded
                        Hours       Rate    Occurrence      Volume     Depth
  Node                 Flooded       CMS   days hr:min    10^6 ltr    Meters
  --------------------------------------------------------------------------
  jd2                     0.01     0.208      0  02:20       0.003     0.000
  jd3                    23.41     2.765      0  03:00      37.983     0.000
  jd4                     1.48     0.907      0  03:00       3.183     0.000
  jd8                     1.43     0.241      0  01:37       0.714     0.000
  jd9                     1.42     0.353      0  03:00       1.508     0.000
  jd10                   23.50     0.782      0  03:00       8.779     0.000
  jd12                   23.52     1.499      0  03:00      16.630     0.000
  jd14                    0.01     0.130      0  02:28       0.001     0.000
  jd17                    1.95     2.218      0  03:00       9.300     0.000
  jd18                    0.51     0.353      0  02:29       0.054     0.000
  jd19                    1.14     0.723      0  03:00       2.263     0.000
  jd21                   23.29     2.506      0  03:00      36.011     0.000
  jd22                    1.16     0.614      0  03:00       1.900     0.000
  jd26                    0.63     0.237      0  02:23       0.223     0.000
  jd28                   23.57     2.334      0  03:00      27.420     0.000
  jd31                    0.01     0.910      0  01:43       0.009     0.000
  jd32                   23.51     3.477      0  03:00      45.692     0.000
  jd35                   23.64     3.044      0  03:00      41.498     0.000
  jd36                    0.89     0.697      0  03:00       1.747     0.000
  jd37                    0.86     0.487      0  03:00       1.167     0.000
  jd39                   23.42     3.807      0  03:00      58.068     0.000
  jd40                    1.34     1.767      0  03:00       6.439     0.000
  jd41                   23.17     5.128      0  03:00      65.609     0.000
  jd43                    1.15     2.179      0  03:00       7.230     0.000
  jd44                    1.11     1.538      0  03:00       4.605     0.000
  jd45                   23.45     3.423      0  03:00      49.557     0.000
  jd50                   23.58     5.336      0  03:00      91.901     0.000
  jd51                   23.14     2.398      0  03:00      25.815     0.000
  jd52                    0.01     1.443      0  02:21       0.023     0.000
  jd53                    0.05     0.492      0  02:17       0.016     0.000
  jd55                    0.79     1.950      0  03:00       4.676     0.000
  jd59                   23.09     1.732      0  03:00      18.418     0.000
  jd60                   23.54     1.326      0  03:00      14.940     0.000
  jd64                    0.01     0.314      0  01:55       0.008     0.000
  jd65                    2.34     4.475      0  03:00      18.446     0.000
  jd66                   23.48     2.124      0  03:00      23.949     0.000
  jd79                   11.62     1.993      0  03:00      13.397     0.000
  jd80                    5.82     1.914      0  03:00       9.623     0.000
  jd83                   23.69     1.408      0  03:00      17.527     0.000
  jd85                   23.52     0.548      0  03:00       6.161     0.000
  jd87                   23.52     0.661      0  03:00       7.437     0.000
  jd93                    0.42     0.113      0  02:36       0.115     0.000
  jd94                    0.01     0.081      0  02:30       0.000     0.000
  jd96                   23.59     0.713      0  03:00       8.070     0.000
  jd97                    0.01     0.056      0  02:36       0.000     0.000
  jd99                   23.48     0.399      0  03:00       5.679     0.000
  jd106                  23.30     1.357      0  03:00      14.507     0.000
  jd110                  23.52     0.672      0  03:00       7.609     0.000
  jd114                  23.44     3.736      0  03:00      50.020     0.000
  jd117                   0.01     0.743      0  01:35       0.012     0.000
  jd122                  23.42     4.117      0  03:00      65.476     0.000
  jd123                  15.91     3.085      0  03:00      43.209     0.000
  jd124                  23.72     2.712      0  03:00      46.621     0.000
  jd125                   1.17     0.881      0  03:00       2.789     0.000
  jd126                  23.66     3.112      0  03:00      36.150     0.000
  
  
  ***********************
  Outfall Loading Summary
  ***********************
  
  -----------------------------------------------------------
                         Flow       Avg       Max       Total
                         Freq      Flow      Flow      Volume
  Outfall Node           Pcnt       CMS       CMS    10^6 ltr
  -----------------------------------------------------------
  psk1                  98.68     0.112     0.588       6.617
  psk2                  98.67     0.302     1.725      17.513
  psk3                  98.68     0.481     2.636      28.177
  psk4                   0.00     0.000     0.000       0.000
  psk5                  98.68     0.115     0.587       6.865
  psk6                  98.66     0.095     0.480       5.641
  psk7                  98.67     0.616     2.122      39.968
  psk8                   0.00     0.000     0.000       0.000
  -----------------------------------------------------------
  System                74.01     1.721     0.000     104.781
  
  
  ********************
  Link Flow Summary
  ********************
  
  -----------------------------------------------------------------------------
                                 Maximum  Time of Max   Maximum    Max/    Max/
                                  |Flow|   Occurrence   |Veloc|    Full    Full
  Link                 Type          CMS  days hr:min     m/sec    Flow   Depth
  -----------------------------------------------------------------------------
  GQ1                  CONDUIT     0.336     0  03:00      1.96    0.88    0.60
  GQ2                  CONDUIT     1.102     0  03:00      2.62    0.52    0.53
  GQ3                  CONDUIT     0.588     0  03:00      6.12    0.02    0.10
  GQ4                  CONDUIT     0.510     0  02:17      1.80    1.00    1.00
  GQ5                  CONDUIT     1.198     0  03:00      2.38    0.99    1.00
  GQ6                  CONDUIT     0.317     0  03:00      1.17    0.14    0.63
  GQ7                  CONDUIT     1.675     0  02:49      3.63    1.00    1.00
  GQ8                  CONDUIT     0.645     0  03:00      1.53    0.62    0.78
  GQ9                  CONDUIT     1.752     0  03:00      4.14    0.62    0.78
  GQ10                 CONDUIT     1.134     0  01:39      4.10    1.04    1.00
  GQ11                 CONDUIT     0.190     0  03:00      1.74    0.20    0.44
  GQ12                 CONDUIT     0.225     0  03:00      1.12    0.24    0.67
  GQ13                 CONDUIT     0.146     0  03:00      0.49    0.07    0.59
  GQ14                 CONDUIT     0.074     0  03:00      1.02    0.10    0.20
  GQ15                 CONDUIT     0.180     0  03:00      4.29    0.73    0.57
  GQ16                 CONDUIT     1.562     0  03:00      4.04    0.75    0.50
  GQ17                 CONDUIT     0.356     0  03:00      1.73    0.11    0.43
  GQ18                 CONDUIT     1.073     0  03:00      2.50    4.84    0.82
  GQ19                 CONDUIT     0.477     0  03:00      2.09    0.06    0.33
  GQ20                 CONDUIT     0.104     0  03:00      0.43    0.06    0.58
  GQ21                 CONDUIT     0.384     0  03:00      1.32    0.12    0.62
  GQ22                 CONDUIT     0.390     0  03:00      1.74    0.12    0.33
  GQ23                 CONDUIT     0.765     0  03:00      2.26    0.38    0.45
  GQ24                 CONDUIT     1.170     0  03:00      2.74    0.58    0.79
  GQ25                 CONDUIT     0.707     0  03:00      3.80    0.79    0.63
  GQ26                 CONDUIT     0.503     0  03:00      2.61    0.59    0.67
  GQ27                 CONDUIT     0.764     0  03:00      2.88    0.77    0.89
  GQ28                 CONDUIT     0.267     0  03:00      0.72    0.29    0.70
  GQ29                 CONDUIT     1.033     0  03:00      2.05    0.48    1.00
  GQ30                 CONDUIT     0.824     0  02:38      2.91    1.00    1.00
  GQ31                 CONDUIT     0.505     0  03:00      1.97    0.68    0.85
  GQ32                 CONDUIT     0.673     0  03:00      2.97    1.08    0.82
  GQ33                 CONDUIT     1.434     0  02:19      5.07    1.00    1.00
  GQ34                 CONDUIT     0.390     0  03:00      1.64    0.61    0.78
  GQ35                 CONDUIT     0.580     0  02:12      2.15    1.08    1.00
  GQ36                 CONDUIT     0.953     0  02:14      3.37    1.18    1.00
  GQ37                 CONDUIT     0.398     0  03:00      1.60    0.57    0.82
  GQ38                 CONDUIT     0.181     0  03:00      0.87    0.26    0.69
  GQ39                 CONDUIT     0.782     0  02:51      2.76    1.00    1.00
  GQ40                 CONDUIT     0.563     0  03:02      2.44    0.70    0.82
  GQ41                 CONDUIT     1.192     0  03:00      1.62    0.55    0.88
  GQ42                 CONDUIT     1.359     0  02:44      2.70    1.00    1.00
  GQ43                 CONDUIT     2.311     0  02:14      4.70    1.03    1.00
  GQ44                 CONDUIT     0.946     0  02:18      1.88    1.00    1.00
  GQ45                 CONDUIT     0.798     0  03:00      2.14    0.32    0.70
  GQ46                 CONDUIT     1.068     0  02:22      2.12    1.00    1.00
  GQ47                 CONDUIT     0.165     0  03:00      0.87    0.16    0.63
  GQ48                 CONDUIT     0.164     0  03:00      0.87    0.16    0.63
  GQ49                 CONDUIT     0.650     0  03:00      3.24    0.24    0.67
  GQ50                 CONDUIT     0.187     0  03:00      1.04    0.24    0.67
  GQ51                 CONDUIT     0.841     0  03:00      3.07    1.28    0.93
  GQ52                 CONDUIT     0.543     0  03:00      1.24    0.72    0.82
  GQ53                 CONDUIT     2.225     0  02:36      2.83    1.00    1.00
  GQ54                 CONDUIT     0.401     0  03:00      1.89    0.34    0.70
  GQ55                 CONDUIT     0.300     0  03:00      1.53    0.20    0.65
  GQ56                 CONDUIT     1.970     0  01:59      4.19    1.08    1.00
  GQ57                 CONDUIT     0.573     0  03:00      1.50    0.37    0.71
  GQ58                 CONDUIT     1.193     0  03:00      3.12    0.37    0.71
  GQ59                 CONDUIT     1.203     0  02:50      2.39    1.00    1.00
  GQ60                 CONDUIT     1.908     0  02:20      1.25    0.46    1.00
  GQ61                 CONDUIT     0.258     0  03:00      0.51    0.03    0.56
  GQ62                 CONDUIT     0.538     0  03:00      0.62    0.05    0.58
  GQ63                 CONDUIT     1.230     0  03:00      1.27    0.04    0.57
  GQ64                 CONDUIT     0.087     0  03:00      1.31    0.07    0.29
  GQ65                 CONDUIT     0.038     0  03:00      0.34    0.07    0.42
  GQ66                 CONDUIT     0.153     0  03:00      0.69    0.05    0.57
  GQ67                 CONDUIT     0.806     0  03:00      0.71    0.56    1.00
  GQ68                 CONDUIT     0.784     0  03:00      1.40    0.25    0.67
  GQ69                 CONDUIT     1.392     0  03:00      3.45    0.50    0.75
  GQ70                 CONDUIT     0.480     0  03:00      7.93    0.07    0.18
  GQ71                 CONDUIT     0.587     0  03:00      5.79    0.14    0.26
  GQ72                 CONDUIT     2.122     0  03:00      5.35    0.51    0.50
  GQ73                 CONDUIT     1.725     0  03:00     12.94    0.11    0.23
  GQ74                 CONDUIT     0.314     0  03:00      1.35    0.06    0.35
  GQ75                 CONDUIT     0.388     0  03:00      0.77    0.11    0.61
  GQ76                 CONDUIT     2.636     0  03:00      6.08    0.57    0.54
  GQ77                 CONDUIT     0.000     0  00:00      0.00    0.00    0.26
  GQ78                 CONDUIT     0.916     0  02:49      3.24    1.00    1.00
  GQ79                 CONDUIT     0.241     0  03:00      1.08    0.52    0.76
  GQ80                 CONDUIT     0.608     0  02:43      2.15    1.00    1.00
  GQ81                 CONDUIT     0.599     0  01:38      2.13    3.80    1.00
  GQ82                 CONDUIT     0.535     0  03:00      2.49    0.37    0.71
  GQ83                 CONDUIT     0.577     0  03:00      2.94    0.37    0.66
  GQ84                 CONDUIT     1.224     0  03:00      4.58    0.97    0.90
  GQ85                 CONDUIT     0.249     0  03:00      0.93    0.43    0.90
  GQ86                 CONDUIT     0.157     0  03:00      0.91    0.07    0.59
  GQ87                 CONDUIT     0.056     0  03:00      0.32    0.08    0.60
  GQ88                 CONDUIT     0.387     0  03:00      1.83    0.34    0.70
  GQ89                 CONDUIT     0.320     0  03:00      1.45    0.42    0.73
  GQ90                 CONDUIT     0.326     0  03:00      1.55    0.33    0.70
  GQ91                 CONDUIT     0.274     0  03:00      1.30    0.34    0.70
  GQ92                 CONDUIT     0.667     0  02:36      1.79    0.96    1.00
  GQ93                 CONDUIT     0.748     0  03:11      1.71    0.64    1.00
  GQ94                 CONDUIT     1.201     0  03:00      2.39    1.43    1.00
  GQ95                 CONDUIT     0.178     0  03:00      0.60    0.05    0.57
  GQ96                 CONDUIT     0.586     0  02:36      1.37    1.00    1.00
  GQ97                 CONDUIT     0.322     0  03:00      1.99    0.58    0.56
  GQ98                 CONDUIT     0.245     0  03:00      1.03    0.35    0.78
  GQ99                 CONDUIT     0.584     0  03:00      0.84    0.03    0.56
  GQ100                CONDUIT     0.420     0  03:00      2.94    0.72    0.51
  GQ101                CONDUIT     0.289     0  03:00      1.47    0.22    0.66
  GQ102                CONDUIT     1.182     0  03:00      3.11    0.36    0.71
  GQ103                CONDUIT     0.484     0  03:00      1.88    0.74    0.85
  GQ104                CONDUIT     1.032     0  03:00      4.14    0.75    0.82
  GQ105                CONDUIT     0.919     0  01:36      1.83    2.92    1.00
  GQ106                CONDUIT     0.320     0  03:00      1.53    0.32    0.69
  GQ107                CONDUIT     1.114     0  02:42      3.94    1.00    1.00
  GQ108                CONDUIT     0.829     0  02:17      1.65    1.00    1.00
  GQ109                CONDUIT     0.236     0  03:00      1.33    0.32    0.69
  GQ110                CONDUIT     0.391     0  03:00      0.91    0.06    0.58
  GQ111                CONDUIT     0.352     0  03:00      1.68    0.32    0.69
  GQ112                CONDUIT     1.074     0  03:00      3.04    0.19    0.35
  GQ113                CONDUIT     0.594     0  03:00      3.89    0.45    0.53
  GQ114                CONDUIT     0.355     0  03:00      0.64    0.15    0.67
  GQ115                CONDUIT     0.154     0  03:00      0.97    0.02    0.20
  GQ116                CONDUIT     0.221     0  03:00      0.49    0.03    0.56
  GQ117                CONDUIT     0.784     0  03:00      4.45    0.49    0.38
  GQ118                CONDUIT     0.296     0  03:00      1.74    0.10    0.39
  GQ119                CONDUIT     2.302     0  02:23      4.58    1.00    1.00
  GQ120                CONDUIT     0.000     0  00:00      0.00    0.00    0.50
  GQ121                CONDUIT     1.080     0  03:00      2.15    0.76    1.00
  GQ122                CONDUIT     0.449     0  03:00      1.86    0.08    0.60
  GQ123                CONDUIT     0.302     0  03:00      1.61    0.15    0.63
  GQ124                CONDUIT     0.188     0  03:00      1.01    0.08    0.40
  GQ125                CONDUIT     0.377     0  03:00      1.71    0.42    0.73
  GQ126                CONDUIT     0.465     0  03:00      2.09    0.44    0.73
  GQ127                CONDUIT     0.825     0  03:13      1.71    1.06    1.00
  GQ128                CONDUIT     1.580     0  03:00      2.61    0.34    0.70
  GQ129                CONDUIT     1.313     0  02:34      2.61    1.00    1.00
  GQ130                CONDUIT     1.073     0  02:11      3.79    1.00    1.00
  GQ131                CONDUIT     0.802     0  03:00      2.84    0.93    1.00
  
  
  ***************************
  Flow Classification Summary
  ***************************
  
  -------------------------------------------------------------------------------------
                      Adjusted    ---------- Fraction of Time in Flow Class ---------- 
                       /Actual         Up    Down  Sub   Sup   Up    Down  Norm  Inlet 
  Conduit               Length    Dry  Dry   Dry   Crit  Crit  Crit  Crit  Ltd   Ctrl  
  -------------------------------------------------------------------------------------
  GQ1                     1.00   0.01  0.00  0.00  0.01  0.98  0.00  0.00  0.00  0.00
  GQ2                     1.00   0.01  0.00  0.00  0.02  0.97  0.00  0.00  0.96  0.00
  GQ3                     1.00   0.01  0.00  0.00  0.00  0.99  0.00  0.00  0.29  0.00
  GQ4                     1.00   0.01  0.00  0.00  0.98  0.00  0.00  0.00  0.81  0.00
  GQ5                     1.00   0.01  0.00  0.00  0.99  0.00  0.00  0.00  0.91  0.00
  GQ6                     1.00   0.01  0.00  0.00  0.99  0.00  0.00  0.00  0.96  0.00
  GQ7                     1.00   0.01  0.00  0.00  0.13  0.86  0.00  0.00  0.02  0.00
  GQ8                     1.00   0.01  0.00  0.00  0.99  0.00  0.00  0.00  0.95  0.00
  GQ9                     1.00   0.01  0.00  0.00  0.87  0.11  0.00  0.00  0.96  0.00
  GQ10                    1.00   0.01  0.00  0.00  0.49  0.50  0.00  0.00  0.86  0.00
  GQ11                    1.00   0.01  0.00  0.00  0.36  0.62  0.00  0.00  0.96  0.00
  GQ12                    1.00   0.01  0.00  0.00  0.98  0.00  0.00  0.00  0.96  0.00
  GQ13                    1.00   0.01  0.00  0.00  0.99  0.00  0.00  0.00  0.96  0.00
  GQ14                    1.00   0.01  0.00  0.00  0.99  0.00  0.00  0.00  0.00  0.00
  GQ15                    1.00   0.01  0.00  0.00  0.00  0.99  0.00  0.00  0.00  0.00
  GQ16                    1.00   0.01  0.00  0.00  0.00  0.99  0.00  0.00  0.00  0.00
  GQ17                    1.00   0.01  0.00  0.00  0.89  0.10  0.00  0.00  0.96  0.00
  GQ18                    1.00   0.01  0.00  0.00  0.96  0.03  0.00  0.00  0.01  0.00
  GQ19                    1.00   0.01  0.00  0.00  0.83  0.15  0.00  0.00  0.96  0.00
  GQ20                    1.00   0.01  0.00  0.00  0.99  0.00  0.00  0.00  0.96  0.00
  GQ21                    1.00   0.01  0.00  0.00  0.31  0.67  0.00  0.00  0.96  0.00
  GQ22                    1.00   0.01  0.00  0.00  0.06  0.92  0.00  0.00  0.96  0.00
  GQ23                    1.00   0.01  0.00  0.00  0.00  0.99  0.00  0.00  0.10  0.00
  GQ24                    1.00   0.01  0.00  0.00  0.92  0.07  0.00  0.00  0.92  0.00
  GQ25                    1.00   0.01  0.00  0.00  0.00  0.99  0.00  0.00  0.00  0.00
  GQ26                    1.00   0.01  0.00  0.00  0.00  0.99  0.00  0.00  0.95  0.00
  GQ27                    1.00   0.01  0.00  0.00  0.88  0.11  0.00  0.00  0.91  0.00
  GQ28                    1.00   0.01  0.00  0.00  0.99  0.00  0.00  0.00  0.92  0.00
  GQ29                    1.00   0.01  0.00  0.00  0.99  0.00  0.00  0.00  0.02  0.00
  GQ30                    1.00   0.01  0.00  0.00  0.98  0.01  0.00  0.00  0.02  0.00
  GQ31                    1.00   0.01  0.00  0.00  0.99  0.00  0.00  0.00  0.92  0.00
  GQ32                    1.00   0.01  0.00  0.00  0.00  0.99  0.00  0.00  0.01  0.00
  GQ33                    1.00   0.01  0.00  0.00  0.82  0.17  0.00  0.00  0.90  0.00
  GQ34                    1.00   0.01  0.00  0.00  0.98  0.01  0.00  0.00  0.96  0.00
  GQ35                    1.00   0.01  0.00  0.00  0.10  0.88  0.00  0.00  0.75  0.00
  GQ36                    1.00   0.01  0.00  0.00  0.08  0.90  0.00  0.00  0.91  0.00
  GQ37                    1.00   0.01  0.00  0.00  0.99  0.00  0.00  0.00  0.92  0.00
  GQ38                    1.00   0.01  0.00  0.00  0.99  0.00  0.00  0.00  0.92  0.00
  GQ39                    1.00   0.01  0.00  0.00  0.97  0.01  0.00  0.00  0.92  0.00
  GQ40                    1.00   0.01  0.00  0.00  0.06  0.92  0.00  0.00  0.93  0.00
  GQ41                    1.00   0.01  0.00  0.00  0.99  0.00  0.00  0.00  0.90  0.00
  GQ42                    1.00   0.01  0.00  0.00  0.99  0.00  0.00  0.00  0.89  0.00
  GQ43                    1.00   0.01  0.00  0.00  0.09  0.89  0.00  0.00  0.91  0.00
  GQ44                    1.00   0.01  0.00  0.00  0.99  0.00  0.00  0.00  0.68  0.00
  GQ45                    1.00   0.01  0.00  0.00  0.15  0.83  0.00  0.00  0.96  0.00
  GQ46                    1.00   0.01  0.00  0.00  0.33  0.66  0.00  0.00  0.82  0.00
  GQ47                    1.00   0.01  0.00  0.00  0.99  0.00  0.00  0.00  0.96  0.00
  GQ48                    1.00   0.01  0.00  0.00  0.99  0.00  0.00  0.00  0.96  0.00
  GQ49                    1.00   0.01  0.00  0.00  0.88  0.11  0.00  0.00  0.96  0.00
  GQ50                    1.00   0.01  0.00  0.00  0.99  0.00  0.00  0.00  0.96  0.00
  GQ51                    1.00   0.01  0.00  0.00  0.01  0.98  0.00  0.00  0.82  0.00
  GQ52                    1.00   0.01  0.00  0.00  0.99  0.00  0.00  0.00  0.95  0.00
  GQ53                    1.00   0.01  0.00  0.00  0.99  0.00  0.00  0.00  0.89  0.00
  GQ54                    1.00   0.01  0.00  0.00  0.99  0.00  0.00  0.00  0.96  0.00
  GQ55                    1.00   0.01  0.00  0.00  0.98  0.00  0.00  0.00  0.96  0.00
  GQ56                    1.00   0.01  0.00  0.00  0.11  0.88  0.00  0.00  0.85  0.00
  GQ57                    1.00   0.01  0.00  0.00  0.99  0.00  0.00  0.00  0.96  0.00
  GQ58                    1.00   0.01  0.00  0.00  0.89  0.09  0.00  0.00  0.96  0.00
  GQ59                    1.00   0.01  0.00  0.00  0.99  0.00  0.00  0.00  0.89  0.00
  GQ60                    1.00   0.01  0.00  0.00  0.99  0.00  0.00  0.00  0.03  0.00
  GQ61                    1.00   0.01  0.00  0.00  0.99  0.00  0.00  0.00  0.96  0.00
  GQ62                    1.00   0.01  0.00  0.00  0.98  0.00  0.00  0.00  0.96  0.00
  GQ63                    1.00   0.01  0.00  0.00  0.98  0.01  0.00  0.00  0.96  0.00
  GQ64                    1.00   0.01  0.00  0.00  0.35  0.64  0.00  0.00  0.96  0.00
  GQ65                    1.00   0.01  0.00  0.00  0.99  0.00  0.00  0.00  0.96  0.00
  GQ66                    1.00   0.01  0.00  0.00  0.98  0.00  0.00  0.00  0.96  0.00
  GQ67                    1.00   0.01  0.00  0.00  0.99  0.00  0.00  0.00  0.01  0.00
  GQ68                    1.00   0.01  0.00  0.00  0.99  0.00  0.00  0.00  0.96  0.00
  GQ69                    1.00   0.01  0.00  0.00  0.88  0.10  0.00  0.00  0.96  0.00
  GQ70                    1.00   0.01  0.00  0.00  0.00  0.99  0.00  0.00  0.02  0.00
  GQ71                    1.00   0.01  0.00  0.00  0.00  0.99  0.00  0.00  0.20  0.00
  GQ72                    1.00   0.01  0.00  0.00  0.00  0.99  0.00  0.00  0.25  0.00
  GQ73                    1.00   0.01  0.00  0.00  0.00  0.99  0.00  0.00  0.00  0.00
  GQ74                    1.00   0.01  0.00  0.00  0.96  0.03  0.00  0.00  0.96  0.00
  GQ75                    1.00   0.01  0.00  0.00  0.99  0.00  0.00  0.00  0.96  0.00
  GQ76                    1.00   0.01  0.00  0.00  0.00  0.99  0.00  0.00  0.23  0.00
  GQ77                    1.00   0.01  0.99  0.00  0.00  0.00  0.00  0.00  0.00  0.00
  GQ78                    1.00   0.01  0.00  0.00  0.95  0.03  0.00  0.00  0.90  0.00
  GQ79                    1.00   0.01  0.00  0.00  0.99  0.00  0.00  0.00  0.02  0.00
  GQ80                    1.00   0.01  0.00  0.00  0.99  0.00  0.00  0.00  0.88  0.00
  GQ81                    1.00   0.01  0.00  0.00  0.99  0.00  0.00  0.00  0.16  0.00
  GQ82                    1.00   0.01  0.00  0.00  0.89  0.09  0.00  0.00  0.96  0.00
  GQ83                    1.00   0.01  0.00  0.00  0.00  0.99  0.00  0.00  0.96  0.00
  GQ84                    1.00   0.01  0.00  0.00  0.11  0.88  0.00  0.00  0.96  0.00
  GQ85                    1.00   0.01  0.00  0.00  0.99  0.00  0.00  0.00  0.88  0.00
  GQ86                    1.00   0.01  0.00  0.00  0.98  0.00  0.00  0.00  0.96  0.00
  GQ87                    1.00   0.01  0.00  0.00  0.99  0.00  0.00  0.00  0.96  0.00
  GQ88                    1.00   0.01  0.00  0.00  0.99  0.00  0.00  0.00  0.96  0.00
  GQ89                    1.00   0.01  0.00  0.00  0.98  0.00  0.00  0.00  0.96  0.00
  GQ90                    1.00   0.01  0.00  0.00  0.98  0.01  0.00  0.00  0.96  0.00
  GQ91                    1.00   0.01  0.00  0.00  0.98  0.00  0.00  0.00  0.96  0.00
  GQ92                    1.00   0.01  0.00  0.00  0.93  0.06  0.00  0.00  0.01  0.00
  GQ93                    1.00   0.01  0.00  0.00  0.99  0.00  0.00  0.00  0.92  0.00
  GQ94                    1.00   0.01  0.00  0.00  0.33  0.66  0.00  0.00  0.04  0.00
  GQ95                    1.00   0.01  0.00  0.00  0.99  0.00  0.00  0.00  0.96  0.00
  GQ96                    1.00   0.01  0.00  0.00  0.99  0.00  0.00  0.00  0.65  0.00
  GQ97                    1.00   0.01  0.00  0.00  0.01  0.98  0.00  0.00  0.40  0.00
  GQ98                    1.00   0.01  0.00  0.00  0.99  0.00  0.00  0.00  0.90  0.00
  GQ99                    1.00   0.01  0.00  0.00  0.98  0.00  0.00  0.00  0.96  0.00
  GQ100                   1.00   0.01  0.00  0.00  0.00  0.99  0.00  0.00  0.00  0.00
  GQ101                   1.00   0.01  0.00  0.00  0.98  0.00  0.00  0.00  0.96  0.00
  GQ102                   1.00   0.01  0.00  0.00  0.89  0.10  0.00  0.00  0.96  0.00
  GQ103                   1.00   0.01  0.00  0.00  0.99  0.00  0.00  0.00  0.92  0.00
  GQ104                   1.00   0.01  0.00  0.00  0.86  0.13  0.00  0.00  0.96  0.00
  GQ105                   1.00   0.01  0.00  0.00  0.99  0.00  0.00  0.00  0.02  0.00
  GQ106                   1.00   0.01  0.00  0.00  0.98  0.00  0.00  0.00  0.96  0.00
  GQ107                   1.00   0.01  0.00  0.00  0.91  0.08  0.00  0.00  0.92  0.00
  GQ108                   1.00   0.01  0.00  0.00  0.99  0.00  0.00  0.00  0.02  0.00
  GQ109                   1.00   0.01  0.00  0.00  0.95  0.03  0.00  0.00  0.96  0.00
  GQ110                   1.00   0.01  0.00  0.00  0.98  0.00  0.00  0.00  0.96  0.00
  GQ111                   1.00   0.01  0.00  0.00  0.98  0.00  0.00  0.00  0.96  0.00
  GQ112                   1.00   0.01  0.00  0.00  0.00  0.99  0.00  0.00  0.95  0.00
  GQ113                   1.00   0.01  0.00  0.00  0.00  0.99  0.00  0.00  0.95  0.00
  GQ114                   1.00   0.01  0.00  0.00  0.99  0.00  0.00  0.00  0.02  0.00
  GQ115                   1.00   0.01  0.00  0.00  0.98  0.01  0.00  0.00  0.96  0.00
  GQ116                   1.00   0.01  0.00  0.00  0.99  0.00  0.00  0.00  0.96  0.00
  GQ117                   1.00   0.01  0.00  0.00  0.00  0.99  0.00  0.00  0.00  0.00
  GQ118                   1.00   0.01  0.00  0.00  0.34  0.65  0.00  0.00  0.96  0.00
  GQ119                   1.00   0.01  0.00  0.00  0.94  0.04  0.00  0.00  0.90  0.00
  GQ120                   1.00   0.01  0.02  0.00  0.97  0.00  0.00  0.00  0.00  0.00
  GQ121                   1.00   0.01  0.00  0.00  0.98  0.00  0.00  0.00  0.02  0.00
  GQ122                   1.00   0.01  0.00  0.00  0.97  0.01  0.00  0.00  0.96  0.00
  GQ123                   1.00   0.01  0.00  0.00  0.97  0.01  0.00  0.00  0.96  0.00
  GQ124                   1.00   0.01  0.00  0.00  0.98  0.00  0.00  0.00  0.96  0.00
  GQ125                   1.00   0.01  0.00  0.00  0.98  0.00  0.00  0.00  0.96  0.00
  GQ126                   1.00   0.01  0.00  0.00  0.93  0.06  0.00  0.00  0.96  0.00
  GQ127                   1.00   0.01  0.00  0.00  0.99  0.00  0.00  0.00  0.60  0.00
  GQ128                   1.00   0.01  0.00  0.00  0.11  0.88  0.00  0.00  0.94  0.00
  GQ129                   1.00   0.01  0.00  0.00  0.99  0.00  0.00  0.00  0.80  0.00
  GQ130                   1.00   0.01  0.00  0.00  0.75  0.24  0.00  0.00  0.80  0.00
  GQ131                   1.00   0.01  0.00  0.00  0.96  0.03  0.00  0.00  0.91  0.00
  
  
  *************************
  Conduit Surcharge Summary
  *************************
  
  ----------------------------------------------------------------------------
                                                           Hours        Hours 
                         --------- Hours Full --------   Above Full   Capacity
  Conduit                Both Ends  Upstream  Dnstream   Normal Flow   Limited
  ----------------------------------------------------------------------------
  GQ4                         2.19      2.19     23.45      0.01         0.01
  GQ5                         0.80      0.80     23.41      0.01         0.01
  GQ6                         0.01      0.01      0.80      0.01         0.01
  GQ7                         1.47      1.47      1.77      0.01         0.01
  GQ8                         0.01      0.01      1.47      0.01         0.01
  GQ9                         0.01      0.01     23.58      0.01         0.01
  GQ10                        2.39      2.39     23.62      0.06         0.01
  GQ12                        0.01      0.01     15.13      0.01         0.01
  GQ13                        0.01      0.01      1.80      0.01         0.01
  GQ18                        0.01      0.01     11.73     14.17         0.01
  GQ20                        0.01      0.01      0.60      0.01         0.01
  GQ21                        0.01      0.01      0.60      0.01         0.01
  GQ24                        0.01      0.01     23.51      0.01         0.01
  GQ27                        0.01      0.01     23.37      0.01         0.01
  GQ28                        0.01      0.01     23.42      0.01         0.01
  GQ29                       23.27     23.27     23.42      0.01         0.01
  GQ30                       23.37     23.37     23.47      0.01         0.01
  GQ31                        0.01      0.01     23.64      0.01         0.01
  GQ32                        0.01      0.98      0.01      0.91         0.01
  GQ33                        0.98      0.98     23.64      0.01         0.01
  GQ34                        0.01      0.01      0.98      0.01         0.01
  GQ35                        0.92      0.92      0.98      0.06         0.01
  GQ36                        0.92      0.92      0.97      1.02         0.91
  GQ37                        0.01      0.01     23.57      0.01         0.01
  GQ38                        0.01      0.01     23.57      0.01         0.01
  GQ39                        0.69      0.69     15.13      0.01         0.01
  GQ40                        0.01      0.01      0.69      0.01         0.01
  GQ41                        0.01      0.01     23.42      0.01         0.01
  GQ42                        1.41      1.41     23.45      0.01         0.01
  GQ43                        1.06      1.06      1.41      0.08         0.01
  GQ44                        2.02      2.02     11.73      0.01         0.01
  GQ45                        0.01      0.01      1.53      0.01         0.01
  GQ46                        1.53      1.53      2.02      0.01         0.01
  GQ47                        0.01      0.01     23.50      0.01         0.01
  GQ48                        0.01      0.01     23.52      0.01         0.01
  GQ49                        0.01      0.01     23.52      0.01         0.01
  GQ50                        0.01      0.01      0.58      0.01         0.01
  GQ51                        0.01      0.58      0.01      0.78         0.01
  GQ52                        0.01      0.01     23.27      0.01         0.01
  GQ53                        1.29      1.29     23.45      0.01         0.01
  GQ54                        0.01      0.01     23.54      0.01         0.01
  GQ55                        0.01      0.01     23.54      0.01         0.01
  GQ56                        1.19      1.19      1.47      0.29         0.04
  GQ57                        0.01      0.01      1.20      0.01         0.01
  GQ58                        0.01      0.01     23.38      0.01         0.01
  GQ59                        1.41      1.41     23.38      0.01         0.01
  GQ60                        0.81      0.81      1.60      0.01         0.01
  GQ61                        0.01      0.01     23.09      0.01         0.01
  GQ62                        0.01      0.01     23.14      0.01         0.01
  GQ63                        0.01      0.01     23.17      0.01         0.01
  GQ66                        0.01      0.01     23.20      0.01         0.01
  GQ67                       23.10     23.10     23.14      0.01         0.01
  GQ68                        0.01      0.01     23.30      0.01         0.01
  GQ69                        0.01      0.01     23.48      0.01         0.01
  GQ75                        0.01      0.01     23.30      0.01         0.01
  GQ78                        1.03      1.03     23.55      0.01         0.01
  GQ79                        0.01      0.01     23.55      0.01         0.01
  GQ80                        1.03      1.03     14.31      0.01         0.01
  GQ81                       14.20     14.31     15.13     12.42        10.27
  GQ82                        0.01      0.01     15.13      0.01         0.01
  GQ84                        0.01      0.01      1.54      0.01         0.01
  GQ85                        0.01      0.01     23.69      0.01         0.01
  GQ86                        0.01      0.01     23.52      0.01         0.01
  GQ87                        0.01      0.01     23.52      0.01         0.01
  GQ88                        0.01      0.01     23.52      0.01         0.01
  GQ89                        0.01      0.01     23.36      0.01         0.01
  GQ90                        0.01      0.01     23.28      0.01         0.01
  GQ91                        0.01      0.01     23.40      0.01         0.01
  GQ92                        0.45      0.45      0.62      0.01         0.01
  GQ93                        0.62      0.62      1.02      0.01         0.01
  GQ94                        1.02      1.02      1.06      1.07         0.97
  GQ95                        0.01      0.01     23.59      0.01         0.01
  GQ96                        0.43      0.43      0.45      0.01         0.01
  GQ98                        0.01      0.01     23.48      0.01         0.01
  GQ99                        0.01      0.01     23.17      0.01         0.01
  GQ101                       0.01      0.01     23.41      0.01         0.01
  GQ102                       0.01      0.01     23.44      0.01         0.01
  GQ103                       0.01      0.01     23.48      0.01         0.01
  GQ104                       0.01      0.01     23.48      0.01         0.01
  GQ105                      23.40     23.40     23.44     14.94         0.01
  GQ106                       0.01      0.01     23.42      0.01         0.01
  GQ107                       0.69      0.69     23.42      0.01         0.01
  GQ108                      12.61     12.61     23.40      0.01         0.01
  GQ109                       0.01      0.01      0.69      0.01         0.01
  GQ110                       0.01      0.01     23.30      0.01         0.01
  GQ111                       0.01      0.01     23.41      0.01         0.01
  GQ114                       0.01      0.01     23.54      0.01         0.01
  GQ116                       0.01      0.01     23.52      0.01         0.01
  GQ119                       1.15      1.15     23.50      0.01         0.01
  GQ120                       0.01      0.01     23.47      0.01         0.01
  GQ121                      23.42     23.42     23.50      0.01         0.01
  GQ122                       0.01      0.01     23.42      0.01         0.01
  GQ123                       0.01      0.01     23.43      0.01         0.01
  GQ125                       0.01      0.01     23.40      0.01         0.01
  GQ126                       0.01      0.01     23.41      0.01         0.01
  GQ127                       1.06      1.06      1.15      0.13         0.08
  GQ128                       0.01      0.01      0.93      0.01         0.01
  GQ129                       1.77      1.77     23.51      0.01         0.01
  GQ130                       1.94      1.94     23.72      0.01         0.01
  GQ131                       0.58      0.58     23.66      0.01         0.01
  

  Analysis begun on:  Sat Mar 25 16:24:30 2023
  Analysis ended on:  Sat Mar 25 16:24:37 2023
  Total elapsed time: 00:00:07