
  OWA STORM WATER MANAGEMENT MODEL - VERSION v5.1.14 (OWA 2022-07-31)
  --------------------------------------------------------------

  INP file created by DSDAConvertToSwmmTools 
  version 0.0.1 EcoVista 
  Title/Notes: 
  
  
  *********************************************************
  NOTE: The summary statistics displayed in this report are
  based on results found at every computational time step,  
  not just on results from each reporting time step.
  *********************************************************
  
  ****************
  Analysis Options
  ****************
  Flow Units ............... CMS
  Process Models:
    Rainfall/Runoff ........ YES
    RDII ................... NO
    Snowmelt ............... NO
    Groundwater ............ NO
    Flow Routing ........... YES
    Ponding Allowed ........ NO
    Water Quality .......... NO
  Infiltration Method ...... GREEN_AMPT
  Flow Routing Method ...... DYNWAVE
  Surcharge Method ......... EXTRAN
  Starting Date ............ 07/15/2020 00:00:00
  Ending Date .............. 07/15/2020 07:00:00
  Antecedent Dry Days ...... 0.0
  Report Time Step ......... 00:30:00
  Wet Time Step ............ 00:05:00
  Dry Time Step ............ 01:00:00
  Routing Time Step ........ 30.00 sec
  Variable Time Step ....... YES
  Maximum Trials ........... 8
  Number of Threads ........ 1
  Head Tolerance ........... 0.001500 m
  
  
  **************************        Volume         Depth
  Runoff Quantity Continuity     hectare-m            mm
  **************************     ---------       -------
  Total Precipitation ......        58.349        14.600
  Evaporation Loss .........         2.238         0.560
  Infiltration Loss ........        15.593         3.902
  Surface Runoff ...........        33.467         8.374
  Final Storage ............         7.105         1.778
  Continuity Error (%) .....        -0.094
  
  
  **************************        Volume        Volume
  Flow Routing Continuity        hectare-m      10^6 ltr
  **************************     ---------     ---------
  Dry Weather Inflow .......         0.000         0.000
  Wet Weather Inflow .......        33.422       334.219
  Groundwater Inflow .......         0.000         0.000
  RDII Inflow ..............         0.000         0.000
  External Inflow ..........         0.000         0.000
  External Outflow .........         3.268        32.679
  Flooding Loss ............        28.716       287.167
  Evaporation Loss .........         0.000         0.000
  Exfiltration Loss ........         0.000         0.000
  Initial Stored Volume ....         0.000         0.000
  Final Stored Volume ......         1.271        12.712
  Continuity Error (%) .....         0.497
  
  
  *************************
  Highest Continuity Errors
  *************************
  Node jd51 (16.13%)
  Node jd59 (13.51%)
  Node jd64 (13.21%)
  Node jd31 (11.68%)
  Node jd55 (11.19%)
  
  
  ***************************
  Time-Step Critical Elements
  ***************************
  Link GQ73 (91.91%)
  
  
  ********************************
  Highest Flow Instability Indexes
  ********************************
  Link GQ67 (24)
  Link GQ29 (11)
  Link GQ46 (10)
  Link GQ121 (6)
  Link GQ44 (3)
  
  
  *************************
  Routing Time Step Summary
  *************************
  Minimum Time Step           :     4.76 sec
  Average Time Step           :    10.14 sec
  Maximum Time Step           :    30.00 sec
  Percent in Steady State     :     0.00
  Average Iterations per Step :     3.99
  Percent Not Converging      :    12.04
  
  
  ***************************
  Subcatchment Runoff Summary
  ***************************
  
  ------------------------------------------------------------------------------------------------------------------------------
                            Total      Total      Total      Total     Imperv       Perv      Total       Total     Peak  Runoff
                           Precip      Runon       Evap      Infil     Runoff     Runoff     Runoff      Runoff   Runoff   Coeff
  Subcatchment                 mm         mm         mm         mm         mm         mm         mm    10^6 ltr      CMS
  ------------------------------------------------------------------------------------------------------------------------------
  1                         14.60       0.00       0.34       8.18       5.16       0.00       5.16        2.04     0.22   0.353
  2                         14.60       0.00       0.60       3.11       8.84       0.00       8.84        8.00     0.86   0.606
  3                         14.60       0.00       0.62       2.66       9.38       0.00       9.38        3.75     0.41   0.642
  4                         14.60       0.00       0.64       2.29       9.77       0.00       9.77        0.82     0.09   0.669
  5                         14.60       0.00       0.57       3.72       8.65       0.00       8.65        1.07     0.12   0.593
  6                         14.60       0.00       0.55       4.18       8.32       0.00       8.32        0.77     0.08   0.570
  7                         14.60       0.00       0.57       3.74       8.45       0.00       8.45        3.69     0.40   0.579
  8                         14.60       0.00       0.72       0.82      10.79       0.00      10.79        1.50     0.17   0.739
  9                         14.60       0.00       0.74       0.41      11.14       0.00      11.14        1.30     0.14   0.763
  10                        14.60       0.00       0.64       2.37       9.62       0.00       9.62        2.17     0.24   0.659
  11                        14.60       0.00       0.69       1.40      10.31       0.00      10.31        5.11     0.56   0.706
  12                        14.60       0.00       0.54       4.20       8.20       0.00       8.20        4.00     0.44   0.561
  13                        14.60       0.00       0.68       1.57      10.19       0.00      10.19        4.61     0.51   0.698
  14                        14.60       0.00       0.68       1.59      10.25       0.00      10.25        1.93     0.21   0.702
  15                        14.60       0.00       0.63       2.57       9.45       0.00       9.45        3.19     0.35   0.647
  16                        14.60       0.00       0.65       2.12       9.77       0.00       9.77        2.89     0.32   0.669
  17                        14.60       0.00       0.61       2.91       9.18       0.00       9.18        3.84     0.42   0.628
  18                        14.60       0.00       0.70       1.15      10.49       0.00      10.49        4.33     0.48   0.719
  19                        14.60       0.00       0.70       1.20      10.43       0.00      10.43        2.35     0.26   0.715
  20                        14.60       0.00       0.70       1.28      10.24       0.00      10.24        5.50     0.60   0.702
  21                        14.60       0.00       0.74       0.43      11.03       0.00      11.03        3.46     0.38   0.756
  22                        14.60       0.00       0.73       0.69      10.81       0.00      10.81        1.33     0.15   0.740
  23                        14.60       0.00       0.67       1.79       9.96       0.00       9.96        5.70     0.62   0.682
  24                        14.60       0.00       0.65       2.23       9.60       0.00       9.60        1.70     0.19   0.658
  25                        14.60       0.00       0.69       1.37      10.40       0.00      10.40        2.11     0.23   0.712
  26                        14.60       0.00       0.59       3.33       8.70       0.00       8.70        3.06     0.33   0.596
  27                        14.60       0.00       0.71       1.09      10.39       0.00      10.39        4.39     0.48   0.712
  28                        14.60       0.00       0.72       0.81      10.68       0.00      10.68        5.05     0.55   0.732
  29                        14.60       0.00       0.65       2.27       9.74       0.00       9.74        2.27     0.25   0.667
  30                        14.60       0.00       0.74       0.49      11.16       0.00      11.16        0.80     0.09   0.765
  31                        14.60       0.00       0.75       0.31      11.16       0.00      11.16        2.46     0.27   0.765
  32                        14.60       0.00       0.73       0.65      10.87       0.00      10.87        4.70     0.52   0.745
  33                        14.60       0.00       0.74       0.48      10.98       0.00      10.98        3.87     0.42   0.752
  34                        14.60       0.00       0.69       1.48      10.26       0.00      10.26        3.01     0.33   0.703
  35                        14.60       0.00       0.71       1.10      10.53       0.00      10.53        4.37     0.48   0.721
  36                        14.60       0.00       0.58       3.48       8.79       0.00       8.79        3.46     0.38   0.602
  37                        14.60       0.00       0.72       0.79      10.77       0.00      10.77        2.39     0.26   0.737
  38                        14.60       0.00       0.68       1.65      10.14       0.00      10.14        3.87     0.43   0.695
  39                        14.60       0.00       0.61       2.90       9.21       0.00       9.21        3.89     0.43   0.631
  40                        14.60       0.00       0.68       1.58      10.19       0.00      10.19        2.33     0.26   0.698
  41                        14.60       0.00       0.70       1.29      10.47       0.00      10.47        2.07     0.23   0.717
  42                        14.60       0.00       0.70       1.30      10.27       0.00      10.27        2.54     0.28   0.703
  43                        14.60       0.00       0.59       3.41       8.72       0.00       8.72        6.89     0.75   0.597
  44                        14.60       0.00       0.62       2.66       9.28       0.00       9.28        4.48     0.49   0.635
  45                        14.60       0.00       0.59       3.39       8.78       0.00       8.78        6.35     0.69   0.601
  46                        14.60       0.00       0.57       3.77       8.60       0.00       8.60        4.30     0.47   0.589
  47                        14.60       0.00       0.60       3.23       8.90       0.00       8.90       10.37     1.13   0.609
  48                        14.60       0.00       0.71       1.01      10.43       0.00      10.43        6.05     0.66   0.715
  49                        14.60       0.00       0.65       2.16       9.57       0.00       9.57        6.48     0.70   0.656
  50                        14.60       0.00       0.72       0.82      10.45       0.00      10.45        4.11     0.44   0.716
  51                        14.60       0.00       0.69       1.42      10.04       0.00      10.04        1.88     0.20   0.688
  52                        14.60       0.00       0.34       8.19       5.18       0.00       5.18        5.32     0.57   0.355
  53                        14.60       0.00       0.49       5.32       7.42       0.00       7.42        7.90     0.85   0.508
  54                        14.60       0.00       0.60       3.14       9.01       0.00       9.01        2.20     0.24   0.617
  55                        14.60       0.00       0.34       8.04       5.29       0.00       5.29        4.18     0.45   0.363
  56                        14.60       0.00       0.13      12.13       2.08       0.00       2.08        1.69     0.18   0.142
  57                        14.60       0.00       0.68       1.63       9.99       0.00       9.99        8.30     0.90   0.684
  58                        14.60       0.00       0.63       2.58       9.44       0.00       9.44        1.55     0.17   0.646
  59                        14.60       0.00       0.61       2.87       9.31       0.00       9.31        1.19     0.13   0.638
  60                        14.60       0.00       0.23      10.20       3.61       0.00       3.61        1.03     0.11   0.247
  61                        14.60       0.00       0.36       7.76       5.42       0.00       5.42        2.04     0.22   0.372
  62                        14.60       0.00       0.50       5.08       7.46       0.00       7.46        8.75     0.95   0.511
  63                        14.60       0.00       0.68       1.61       9.90       0.00       9.90       19.15     2.06   0.678
  64                        14.60       0.00       0.51       4.91       7.72       0.00       7.72        1.66     0.18   0.529
  65                        14.60       0.00       0.69       1.42      10.07       0.00      10.07        6.77     0.73   0.690
  66                        14.60       0.00       0.54       4.22       8.08       0.00       8.08        2.06     0.22   0.553
  67                        14.60       0.00       0.51       4.90       7.77       0.00       7.77        2.51     0.27   0.532
  68                        14.60       0.00       0.61       2.97       9.17       0.00       9.17        1.02     0.11   0.628
  69                        14.60       0.00       0.36       7.77       5.59       0.00       5.59        1.79     0.19   0.383
  70                        14.60       0.00       0.50       4.99       7.57       0.00       7.57        6.23     0.68   0.518
  71                        14.60       0.00       0.62       2.73       9.35       0.00       9.35        1.15     0.13   0.640
  72                        14.60       0.00       0.66       2.08       9.85       0.00       9.85        1.23     0.13   0.674
  73                        14.60       0.00       0.59       3.26       9.00       0.00       9.00        1.50     0.16   0.617
  74                        14.60       0.00       0.57       3.79       8.58       0.00       8.58        1.85     0.20   0.588
  75                        14.60       0.00       0.63       2.59       9.47       0.00       9.47        1.36     0.15   0.649
  76                        14.60       0.00       0.66       1.96       9.97       0.00       9.97        0.97     0.11   0.683
  77                        14.60       0.00       0.71       1.12      10.56       0.00      10.56        1.14     0.13   0.723
  78                        14.60       0.00       0.68       1.60      10.18       0.00      10.18        1.12     0.12   0.697
  79                        14.60       0.00       0.30       8.90       4.64       0.00       4.64        4.92     0.52   0.318
  80                        14.60       0.00       0.56       3.85       8.38       0.00       8.38        5.25     0.57   0.574
  81                        14.60       0.00       0.57       3.68       8.51       0.00       8.51        3.71     0.40   0.583
  82                        14.60       0.00       0.55       4.15       8.16       0.00       8.16        7.48     0.81   0.559
  83                        14.60       0.00       0.68       1.53      10.28       0.00      10.28        1.26     0.14   0.704
  84                        14.60       0.00       0.65       2.27       9.67       0.00       9.67        1.15     0.13   0.662
  85                        14.60       0.00       0.76       0.11      11.38       0.00      11.38        1.06     0.12   0.780
  86                        14.60       0.00       0.70       1.23      10.48       0.00      10.48        1.54     0.17   0.717
  87                        14.60       0.00       0.75       0.31      11.12       0.00      11.12        1.46     0.16   0.761
  88                        14.60       0.00       0.67       1.82      10.07       0.00      10.07        0.96     0.11   0.690
  89                        14.60       0.00       0.70       1.17      10.55       0.00      10.55        2.03     0.22   0.722
  90                        14.60       0.00       0.76       0.00      11.51       0.00      11.51        0.13     0.01   0.789
  91                        14.60       0.00       0.64       2.45       9.37       0.00       9.37        2.04     0.22   0.642
  92                        14.60       0.00       0.70       1.14      10.55       0.00      10.55        1.32     0.15   0.723
  93                        14.60       0.00       0.57       3.63       8.63       0.00       8.63        4.41     0.48   0.591
  94                        14.60       0.00       0.52       4.73       7.96       0.00       7.96        0.56     0.06   0.545
  95                        14.60       0.00       0.76       0.02      11.44       0.00      11.44        0.25     0.03   0.784
  96                        14.60       0.00       0.62       2.83       9.30       0.00       9.30        1.14     0.12   0.637
  97                        14.60       0.00       0.75       0.31      11.20       0.00      11.20        1.11     0.12   0.767
  98                        14.60       0.00       0.62       2.76       9.36       0.00       9.36        1.15     0.13   0.641
  99                        14.60       0.00       0.31       8.74       4.80       0.00       4.80        1.78     0.19   0.329
  100                       14.60       0.00       0.34       8.08       5.33       0.00       5.33        1.37     0.15   0.365
  101                       14.60       0.00       0.35       7.92       5.43       0.00       5.43        2.66     0.28   0.372
  102                       14.60       0.00       0.57       3.71       8.59       0.00       8.59        2.09     0.23   0.588
  103                       14.60       0.00       0.19      10.96       3.02       0.00       3.02        1.10     0.12   0.207
  104                       14.60       0.00       0.13      12.14       2.04       0.00       2.04        1.97     0.21   0.140
  105                       14.60       0.00       0.63       2.59       9.49       0.00       9.49        1.24     0.14   0.650
  106                       14.60       0.00       0.34       8.10       5.28       0.00       5.28        1.29     0.14   0.362
  
  
  ******************
  Node Depth Summary
  ******************
  
  ---------------------------------------------------------------------------------
                                 Average  Maximum  Maximum  Time of Max    Reported
                                   Depth    Depth      HGL   Occurrence   Max Depth
  Node                 Type       Meters   Meters   Meters  days hr:min      Meters
  ---------------------------------------------------------------------------------
  jd1                  JUNCTION     0.09     0.13   273.13     0  04:00        0.13
  jd2                  JUNCTION     0.22     0.34   267.34     0  04:01        0.34
  jd3                  JUNCTION     2.47     3.00   266.00     0  02:49        3.00
  jd4                  JUNCTION     1.19     3.00   270.00     0  03:37        3.00
  jd5                  JUNCTION     0.06     0.09   274.09     0  04:00        0.09
  jd6                  JUNCTION     0.08     0.11   275.11     0  04:00        0.11
  jd7                  JUNCTION     0.26     0.40   264.50     0  04:00        0.40
  jd8                  JUNCTION     1.58     3.00   267.00     0  03:14        2.86
  jd9                  JUNCTION     1.21     3.00   268.00     0  03:14        2.69
  jd10                 JUNCTION     2.51     3.00   273.00     0  02:43        3.00
  jd11                 JUNCTION     0.07     0.10   282.10     0  04:00        0.10
  jd12                 JUNCTION     2.54     3.00   272.00     0  02:37        3.00
  jd13                 JUNCTION     0.08     0.12   289.12     0  04:00        0.12
  jd14                 JUNCTION     0.17     0.27   280.27     0  04:00        0.27
  jd15                 JUNCTION     0.18     0.28   278.28     0  04:02        0.28
  jd16                 JUNCTION     0.20     0.31   274.31     0  04:01        0.31
  jd17                 JUNCTION     1.93     3.00   278.80     0  03:06        3.00
  jd18                 JUNCTION     0.18     0.28   279.28     0  04:01        0.28
  jd19                 JUNCTION     0.65     3.00   270.00     0  03:37        1.74
  jd20                 JUNCTION     0.16     0.21   273.21     0  04:00        0.21
  jd21                 JUNCTION     2.46     3.00   273.00     0  02:47        3.00
  jd22                 JUNCTION     1.22     2.00   274.00     0  04:00        2.00
  jd23                 JUNCTION     0.15     0.24   278.24     0  04:00        0.24
  jd24                 JUNCTION     0.10     0.14   285.14     0  04:00        0.14
  jd25                 JUNCTION     0.16     0.24   279.24     0  04:00        0.24
  jd26                 JUNCTION     0.18     0.27   285.27     0  04:00        0.27
  jd27                 JUNCTION     0.14     0.22   291.22     0  04:01        0.22
  jd28                 JUNCTION     2.58     3.00   290.00     0  02:30        3.00
  jd29                 JUNCTION     0.07     0.10   299.10     0  04:00        0.10
  jd30                 JUNCTION     0.09     0.13   290.13     0  04:01        0.13
  jd31                 JUNCTION     0.82     3.00   275.00     0  03:06        1.06
  jd32                 JUNCTION     2.55     3.00   275.00     0  02:35        3.00
  jd33                 JUNCTION     0.13     0.20   289.20     0  04:00        0.20
  jd34                 JUNCTION     0.15     0.22   294.22     0  04:00        0.22
  jd35                 JUNCTION     2.62     3.00   292.00     0  02:21        3.00
  jd36                 JUNCTION     0.21     0.33   299.33     0  04:02        0.33
  jd37                 JUNCTION     0.21     0.32   303.32     0  04:00        0.32
  jd38                 JUNCTION     0.25     0.38   297.38     0  04:01        0.38
  jd39                 JUNCTION     2.48     3.00   297.00     0  02:49        3.00
  jd40                 JUNCTION     0.35     0.60   299.60     0  04:06        0.59
  jd41                 JUNCTION     2.32     3.00   296.00     0  03:17        3.00
  jd42                 JUNCTION     0.13     0.20   305.20     0  04:01        0.20
  jd43                 JUNCTION     0.35     0.55   297.55     0  04:01        0.55
  jd44                 JUNCTION     0.37     0.60   283.60     0  04:04        0.60
  jd45                 JUNCTION     2.52     3.00   282.00     0  02:42        3.00
  jd46                 JUNCTION     0.19     0.28   275.28     0  04:08        0.28
  jd47                 JUNCTION     0.11     0.16   315.16     0  04:00        0.16
  jd48                 JUNCTION     0.08     0.11   325.11     0  04:00        0.11
  jd49                 JUNCTION     0.17     0.26   289.26     0  04:01        0.26
  jd50                 JUNCTION     2.59     3.00   278.00     0  02:28        3.00
  jd51                 JUNCTION     2.27     3.00   313.00     0  03:21        3.00
  jd52                 JUNCTION     0.26     0.41   323.41     0  04:02        0.41
  jd53                 JUNCTION     0.27     0.42   322.42     0  04:02        0.42
  jd54                 JUNCTION     0.20     0.30   326.30     0  04:01        0.30
  jd55                 JUNCTION     1.12     1.51   323.51     0  04:00        1.51
  jd56                 JUNCTION     0.12     0.19   327.19     0  04:00        0.19
  jd59                 JUNCTION     2.22     3.00   320.80     0  03:25        3.00
  jd60                 JUNCTION     2.54     3.00   319.00     0  02:36        3.00
  jd61                 JUNCTION     0.10     0.15   329.15     0  04:00        0.15
  jd62                 JUNCTION     0.05     0.07   335.07     0  04:00        0.07
  jd63                 JUNCTION     0.05     0.07   324.07     0  04:00        0.07
  jd64                 JUNCTION     2.05     3.00   321.00     0  03:26        2.81
  jd65                 JUNCTION     1.59     3.00   307.00     0  03:15        3.00
  jd66                 JUNCTION     2.50     3.00   304.00     0  02:45        3.00
  jd69                 JUNCTION     0.16     0.24   333.24     0  04:00        0.24
  jd79                 JUNCTION     2.49     3.00   274.00     0  02:33        3.00
  jd80                 JUNCTION     2.01     3.00   279.00     0  02:58        3.00
  jd81                 JUNCTION     0.10     0.15   288.15     0  04:00        0.15
  jd83                 JUNCTION     2.64     3.00   323.00     0  02:19        3.00
  jd84                 JUNCTION     0.15     0.24   323.24     0  04:00        0.24
  jd85                 JUNCTION     2.51     3.00   324.00     0  02:42        3.00
  jd87                 JUNCTION     2.52     3.00   322.00     0  02:40        3.00
  jd89                 JUNCTION     0.11     0.16   324.16     0  04:00        0.16
  jd90                 JUNCTION     0.10     0.14   328.14     0  04:00        0.14
  jd92                 JUNCTION     0.10     0.15   326.15     0  04:00        0.15
  jd93                 JUNCTION     0.28     0.44   324.44     0  04:01        0.44
  jd94                 JUNCTION     0.17     0.26   326.46     0  04:02        0.26
  jd95                 JUNCTION     0.22     0.34   327.34     0  04:00        0.34
  jd96                 JUNCTION     2.56     3.00   308.00     0  02:35        3.00
  jd97                 JUNCTION     0.22     0.34   327.54     0  04:00        0.34
  jd98                 JUNCTION     0.13     0.19   329.19     0  04:00        0.19
  jd99                 JUNCTION     2.49     3.00   327.00     0  02:45        3.00
  jd101                JUNCTION     0.08     0.12   321.12     0  04:00        0.12
  jd102                JUNCTION     0.16     0.24   324.24     0  04:00        0.24
  jd103                JUNCTION     0.08     0.12   318.12     0  04:00        0.12
  jd106                JUNCTION     2.36     3.00   287.00     0  03:06        3.00
  jd107                JUNCTION     0.15     0.22   332.22     0  04:00        0.22
  jd108                JUNCTION     1.01     1.21   327.21     0  04:00        1.21
  jd109                JUNCTION     0.11     0.17   343.17     0  04:00        0.17
  jd110                JUNCTION     2.52     3.00   327.00     0  02:43        3.00
  jd111                JUNCTION     0.05     0.08   344.08     0  04:00        0.08
  jd112                JUNCTION     0.07     0.10   334.10     0  04:00        0.10
  jd113                JUNCTION     0.07     0.11   348.11     0  04:00        0.11
  jd114                JUNCTION     2.52     3.00   317.00     0  02:40        3.00
  jd117                JUNCTION     0.90     3.00   319.00     0  02:48        1.18
  jd118                JUNCTION     0.06     0.10   330.10     0  04:00        0.10
  jd120                JUNCTION     0.11     0.16   327.16     0  04:00        0.16
  jd121                JUNCTION     0.11     0.17   320.17     0  04:00        0.17
  jd122                JUNCTION     2.47     3.00   276.00     0  02:47        3.00
  jd123                JUNCTION     2.45     3.00   276.20     0  02:51        3.00
  jd124                JUNCTION     2.67     3.00   271.00     0  02:10        3.00
  jd125                JUNCTION     0.80     3.00   278.00     0  03:34        2.05
  jd126                JUNCTION     2.63     3.00   275.00     0  02:20        3.00
  jd135                JUNCTION     0.09     0.14   289.14     0  04:00        0.14
  jd136                JUNCTION     0.18     0.27   341.27     0  04:00        0.27
  psk1                 OUTFALL      0.07     0.10   279.10     0  04:00        0.10
  psk2                 OUTFALL      0.09     0.13   270.13     0  04:01        0.13
  psk3                 OUTFALL      0.20     0.31   271.31     0  04:01        0.31
  psk4                 OUTFALL      0.00     0.00   280.00     0  00:00        0.00
  psk5                 OUTFALL      0.09     0.13   263.13     0  04:00        0.13
  psk6                 OUTFALL      0.06     0.09   259.09     0  04:00        0.09
  psk7                 OUTFALL      0.26     0.40   262.40     0  04:00        0.40
  psk8                 OUTFALL      0.00     0.00   317.00     0  00:00        0.00
  
  
  *******************
  Node Inflow Summary
  *******************
  
  -------------------------------------------------------------------------------------------------
                                  Maximum  Maximum                  Lateral       Total        Flow
                                  Lateral    Total  Time of Max      Inflow      Inflow     Balance
                                   Inflow   Inflow   Occurrence      Volume      Volume       Error
  Node                 Type           CMS      CMS  days hr:min    10^6 ltr    10^6 ltr     Percent
  -------------------------------------------------------------------------------------------------
  jd1                  JUNCTION     0.219    0.357     0  04:00        2.04        3.32       0.294
  jd2                  JUNCTION     0.331    0.456     0  04:00        3.05        4.21       0.557
  jd3                  JUNCTION     0.401    1.364     0  04:00        3.68        12.7       3.222
  jd4                  JUNCTION     0.479    0.537     0  04:00        4.39        4.92       0.679
  jd5                  JUNCTION     0.144    0.251     0  04:00         1.3        2.29       0.098
  jd6                  JUNCTION     0.165    0.165     0  04:00         1.5         1.5       0.154
  jd7                  JUNCTION     0.084    1.381     0  04:00       0.772        13.1       0.292
  jd8                  JUNCTION     0.117    0.979     0  04:00        1.07        9.56       1.679
  jd9                  JUNCTION     0.090    0.862     0  04:00       0.819        8.53       0.387
  jd10                 JUNCTION     0.238    0.303     0  04:00        2.16        2.76       3.762
  jd11                 JUNCTION     0.351    0.351     0  04:00        3.19        3.19       0.205
  jd12                 JUNCTION     0.263    0.570     0  04:00        2.39        5.17       2.709
  jd13                 JUNCTION     0.477    0.477     0  04:00        4.33        4.33       0.155
  jd14                 JUNCTION     0.553    0.623     0  04:00        5.04        5.67       0.367
  jd15                 JUNCTION     0.232    0.500     0  04:00         2.1        4.54       1.024
  jd16                 JUNCTION     0.249    0.947     0  04:00        2.27        8.59       0.380
  jd17                 JUNCTION     0.517    1.291     0  04:00        4.69        13.1       4.767
  jd18                 JUNCTION     0.412    0.598     0  04:00        3.75        5.43       0.483
  jd19                 JUNCTION     0.383    0.772     0  04:00        3.48        7.73       0.332
  jd20                 JUNCTION     0.317    0.536     0  04:00        2.88         5.9       0.558
  jd21                 JUNCTION     0.146    1.258     0  04:00        1.33        11.6       2.958
  jd22                 JUNCTION     0.258    0.583     0  04:00        2.34        5.32       1.591
  jd23                 JUNCTION     0.256    0.709     0  04:00        2.33        6.44       0.275
  jd24                 JUNCTION     0.421    0.421     0  04:00        3.84        3.84       0.197
  jd25                 JUNCTION     0.330    0.478     0  04:00           3        4.34       0.378
  jd26                 JUNCTION     0.481    0.798     0  04:00        4.36        7.26       0.353
  jd27                 JUNCTION     0.490    0.811     0  04:00        4.48        7.44       0.375
  jd28                 JUNCTION     0.659    0.928     0  04:00        6.04        8.52       1.578
  jd29                 JUNCTION     0.271    0.271     0  04:00        2.46        2.46       0.098
  jd30                 JUNCTION     0.277    0.759     0  04:00        2.53        6.95       0.229
  jd31                 JUNCTION     0.186    0.638     0  03:05         1.7        3.86      13.225
  jd32                 JUNCTION     0.381    1.847     0  04:00        3.46        15.8       1.592
  jd33                 JUNCTION     0.377    0.627     0  04:00        3.45        5.75       0.174
  jd34                 JUNCTION     0.468    0.468     0  04:00        4.29        4.29       0.145
  jd35                 JUNCTION     0.426    1.470     0  04:00        3.88        13.5       0.966
  jd36                 JUNCTION     0.704    1.156     0  04:00        6.47        10.6       0.474
  jd37                 JUNCTION     0.747    0.747     0  04:00        6.88        6.88       0.255
  jd38                 JUNCTION     0.692    1.138     0  04:00        6.34        10.5       0.593
  jd39                 JUNCTION     0.482    2.132     0  04:01        4.41        19.5       2.674
  jd40                 JUNCTION     0.813    2.000     0  04:00        7.47        17.7       0.653
  jd41                 JUNCTION     0.574    2.435     0  04:00        5.24        22.1      10.604
  jd42                 JUNCTION     0.732    0.806     0  04:00        6.76        7.45       0.483
  jd43                 JUNCTION     0.855    1.488     0  04:00        7.89        13.6       0.562
  jd44                 JUNCTION     1.130    2.852     0  04:00        10.4        26.1       0.597
  jd45                 JUNCTION     0.440    1.766     0  04:03         4.1        16.5       1.993
  jd46                 JUNCTION     0.202    0.202     0  04:00        1.88        1.88       1.485
  jd47                 JUNCTION     0.679    0.679     0  04:00        6.22        6.22       0.029
  jd48                 JUNCTION     0.190    0.190     0  04:00        1.79        1.79       0.115
  jd49                 JUNCTION     0.901    0.901     0  04:00        8.28        8.28       0.374
  jd50                 JUNCTION     0.949    2.697     0  04:00        8.73        28.3       1.518
  jd51                 JUNCTION     0.202    0.924     0  04:00        1.84        8.46      19.238
  jd52                 JUNCTION     0.403    1.609     0  04:00         3.7        14.1       0.536
  jd53                 JUNCTION     0.222    1.246     0  04:00        2.04        11.2       0.318
  jd54                 JUNCTION     0.123    0.610     0  04:00        1.11        5.58       0.349
  jd55                 JUNCTION     0.224    0.721     0  04:00        2.03        6.66      12.604
  jd56                 JUNCTION     0.136    0.398     0  04:00        1.24        3.61       0.246
  jd59                 JUNCTION     0.135    0.667     0  04:00        1.23        5.69      15.624
  jd60                 JUNCTION     0.241    0.512     0  04:00        2.19        4.72       2.776
  jd61                 JUNCTION     0.270    0.304     0  04:00        2.51        2.83       0.206
  jd62                 JUNCTION     0.109    0.109     0  04:00        1.03        1.03       0.040
  jd63                 JUNCTION     0.150    0.150     0  04:00        1.36        1.36       0.097
  jd64                 JUNCTION     0.126    0.311     0  04:00        1.14        2.83      15.220
  jd65                 JUNCTION     2.060    2.060     0  04:00        19.1        19.1       0.297
  jd66                 JUNCTION     0.283    0.822     0  04:00        2.65         7.7       4.282
  jd69                 JUNCTION     0.525    0.539     0  04:00        4.92        5.06       0.220
  jd79                 JUNCTION     0.506    0.922     0  04:00         4.6        8.19       2.185
  jd80                 JUNCTION     0.561    0.740     0  04:00         5.1        6.93       1.563
  jd81                 JUNCTION     0.425    0.425     0  04:00        3.86        3.86       0.069
  jd83                 JUNCTION     0.449    0.597     0  04:00        4.17        5.67       1.491
  jd84                 JUNCTION     0.571    0.571     0  04:00        5.31        5.31       0.165
  jd85                 JUNCTION     0.130    0.213     0  04:00        1.18        1.96       4.458
  jd87                 JUNCTION     0.106    0.255     0  04:00       0.965        2.35       3.222
  jd89                 JUNCTION     0.123    0.123     0  04:00        1.12        1.12       0.283
  jd90                 JUNCTION     0.126    0.126     0  04:00        1.15        1.15       0.110
  jd92                 JUNCTION     0.106    0.106     0  04:00       0.963       0.963       0.112
  jd93                 JUNCTION     0.224    0.488     0  04:00        2.06        4.46       0.408
  jd94                 JUNCTION     0.015    0.265     0  04:00       0.132        2.41       0.466
  jd95                 JUNCTION     0.028    0.251     0  04:00        0.25        2.29       0.387
  jd96                 JUNCTION     0.207    0.276     0  04:00        1.97         2.6       3.795
  jd97                 JUNCTION     0.223    0.223     0  04:00        2.04        2.04       0.087
  jd98                 JUNCTION     0.125    0.125     0  04:00        1.13        1.13       0.145
  jd99                 JUNCTION     0.060    0.212     0  04:00       0.557        1.94       2.972
  jd101                JUNCTION     0.163    0.324     0  04:00        1.49        2.95       0.030
  jd102                JUNCTION     0.161    0.161     0  04:00        1.46        1.46       0.277
  jd103                JUNCTION     0.112    0.112     0  04:00        1.02        1.02       0.055
  jd106                JUNCTION     0.088    0.500     0  04:00         0.8        4.54       9.222
  jd107                JUNCTION     0.127    0.415     0  04:00        1.15         3.8       0.325
  jd108                JUNCTION     0.138    0.138     0  04:00        1.29        1.31       5.223
  jd109                JUNCTION     0.229    0.229     0  04:00        2.09        2.09       0.073
  jd110                JUNCTION     0.175    0.261     0  04:00        1.69         2.5       6.409
  jd111                JUNCTION     0.145    0.145     0  04:00        1.37        1.37       0.088
  jd112                JUNCTION     0.170    0.474     0  04:00        1.54        4.41       0.102
  jd113                JUNCTION     0.115    0.115     0  04:00         1.1         1.1      -0.004
  jd114                JUNCTION     0.138    1.799     0  04:00        1.26        16.2       1.972
  jd117                JUNCTION     0.127    0.419     0  04:00        1.15        3.93       4.151
  jd118                JUNCTION     0.117    0.117     0  04:00        1.06        1.06       0.003
  jd120                JUNCTION     0.145    0.145     0  04:00        1.32        1.32       0.113
  jd121                JUNCTION     0.179    0.179     0  04:00        1.66        1.66       0.178
  jd122                JUNCTION     0.425    1.776     0  04:00        3.86        18.1       3.181
  jd123                JUNCTION     0.438    1.862     0  04:00        3.99        19.5       3.669
  jd124                JUNCTION     0.624    1.621     0  04:00        5.69        15.8       0.358
  jd125                JUNCTION     0.599    2.082     0  04:02        5.49        19.1       0.242
  jd126                JUNCTION     0.865    1.217     0  04:00        7.98        11.2       0.897
  jd135                JUNCTION     0.227    0.227     0  04:00        2.06        2.06       0.090
  jd136                JUNCTION     0.189    0.304     0  04:00        1.78        2.88       0.260
  psk1                 OUTFALL      0.000    0.225     0  04:00           0        2.09       0.000
  psk2                 OUTFALL      0.000    0.559     0  04:01           0        5.11       0.000
  psk3                 OUTFALL      0.000    0.945     0  04:01           0        8.55       0.000
  psk4                 OUTFALL      0.000    0.000     0  00:00           0           0       0.000 ltr
  psk5                 OUTFALL      0.000    0.231     0  04:00           0        2.15       0.000
  psk6                 OUTFALL      0.000    0.192     0  04:00           0        1.76       0.000
  psk7                 OUTFALL      0.000    1.380     0  04:00           0          13       0.000
  psk8                 OUTFALL      0.000    0.000     0  00:00           0           0       0.000 ltr
  
  
  **********************
  Node Surcharge Summary
  **********************
  
  Surcharging occurs when water rises above the top of the highest conduit.
  ---------------------------------------------------------------------
                                               Max. Height   Min. Depth
                                   Hours       Above Crown    Below Rim
  Node                 Type      Surcharged         Meters       Meters
  ---------------------------------------------------------------------
  jd3                  JUNCTION        4.17          2.200        0.000
  jd4                  JUNCTION        1.61          2.200        0.000
  jd8                  JUNCTION        3.27          2.200        0.000
  jd9                  JUNCTION        2.08          2.200        0.000
  jd10                 JUNCTION        4.29          2.400        0.000
  jd12                 JUNCTION        4.38          2.400        0.000
  jd17                 JUNCTION        3.26          2.200        0.000
  jd19                 JUNCTION        1.42          2.200        0.000
  jd21                 JUNCTION        4.21          2.200        0.000
  jd22                 JUNCTION        4.00          1.404        0.996
  jd28                 JUNCTION        4.50          2.400        0.000
  jd31                 JUNCTION        3.90          2.200        0.000
  jd32                 JUNCTION        4.41          2.200        0.000
  jd35                 JUNCTION        4.65          2.400        0.000
  jd39                 JUNCTION        4.18          2.000        0.000
  jd41                 JUNCTION        3.72          1.000        0.000
  jd45                 JUNCTION        4.30          2.000        0.000
  jd50                 JUNCTION        4.53          2.200        0.000
  jd51                 JUNCTION        3.65          1.350        0.000
  jd55                 JUNCTION        0.42          0.013        1.487
  jd59                 JUNCTION        3.57          1.500        0.000
  jd60                 JUNCTION        4.40          2.400        0.000
  jd64                 JUNCTION        3.59          1.800        0.000
  jd65                 JUNCTION        2.21          2.400        0.000
  jd66                 JUNCTION        4.25          2.200        0.000
  jd79                 JUNCTION        4.45          2.400        0.000
  jd80                 JUNCTION        3.60          2.400        0.000
  jd83                 JUNCTION        4.68          2.400        0.000
  jd85                 JUNCTION        4.29          2.400        0.000
  jd87                 JUNCTION        4.34          2.400        0.000
  jd96                 JUNCTION        4.42          2.200        0.000
  jd99                 JUNCTION        4.24          2.400        0.000
  jd106                JUNCTION        3.90          2.000        0.000
  jd108                JUNCTION        4.37          0.208        1.792
  jd110                JUNCTION        4.29          2.000        0.000
  jd114                JUNCTION        4.33          2.000        0.000
  jd117                JUNCTION        4.19          2.200        0.000
  jd122                JUNCTION        4.21          2.200        0.000
  jd123                JUNCTION        4.15          2.200        0.000
  jd124                JUNCTION        4.84          2.400        0.000
  jd125                JUNCTION        1.59          2.200        0.000
  jd126                JUNCTION        4.67          2.400        0.000
  
  
  *********************
  Node Flooding Summary
  *********************
  
  Flooding refers to all water that overflows a node, whether it ponds or not.
  --------------------------------------------------------------------------
                                                             Total   Maximum
                                 Maximum   Time of Max       Flood    Ponded
                        Hours       Rate    Occurrence      Volume     Depth
  Node                 Flooded       CMS   days hr:min    10^6 ltr    Meters
  --------------------------------------------------------------------------
  jd3                     4.17     1.364      0  04:00      12.324     0.000
  jd4                     0.61     0.140      0  03:37       0.032     0.000
  jd8                     0.01     0.034      0  03:37       0.001     0.000
  jd9                     0.01     0.136      0  03:14       0.001     0.000
  jd10                    4.29     0.303      0  04:00       2.656     0.000
  jd12                    4.38     0.570      0  04:00       5.030     0.000
  jd17                    2.12     0.693      0  03:06       2.560     0.000
  jd19                    0.01     0.054      0  03:37       0.000     0.000
  jd21                    3.90     1.258      0  04:00      10.927     0.000
  jd28                    4.49     0.928      0  04:00       8.389     0.000
  jd31                    0.01     0.456      0  03:06       0.004     0.000
  jd32                    4.41     1.847      0  04:00      15.564     0.000
  jd35                    4.64     1.470      0  04:00      13.381     0.000
  jd39                    4.18     2.132      0  04:01      19.004     0.000
  jd41                    3.72     2.435      0  04:00      19.961     0.000
  jd45                    4.30     1.766      0  04:03      16.142     0.000
  jd50                    4.53     2.697      0  04:00      27.874     0.000
  jd51                    3.65     0.924      0  04:00       7.099     0.000
  jd59                    3.57     0.667      0  04:00       4.916     0.000
  jd60                    4.39     0.512      0  04:00       4.596     0.000
  jd64                    0.01     0.285      0  03:26       0.006     0.000
  jd65                    2.13     0.967      0  04:00       5.534     0.000
  jd66                    4.25     0.822      0  04:00       7.384     0.000
  jd79                    3.35     0.702      0  04:00       4.998     0.000
  jd80                    2.45     0.583      0  04:00       3.997     0.000
  jd83                    4.68     0.597      0  04:00       5.589     0.000
  jd85                    4.29     0.213      0  04:00       1.877     0.000
  jd87                    4.33     0.255      0  04:00       2.278     0.000
  jd96                    4.41     0.276      0  04:00       2.503     0.000
  jd99                    4.24     0.212      0  04:00       1.883     0.000
  jd106                   3.90     0.500      0  04:00       4.161     0.000
  jd110                   4.28     0.261      0  04:00       2.348     0.000
  jd114                   4.19     1.799      0  04:00      15.780     0.000
  jd117                   0.01     0.241      0  02:48       0.002     0.000
  jd122                   4.15     1.776      0  04:00      17.410     0.000
  jd123                   4.10     1.547      0  04:00      14.078     0.000
  jd124                   4.84     1.621      0  04:00      15.793     0.000
  jd125                   0.01     0.202      0  03:34       0.001     0.000
  jd126                   4.67     1.217      0  04:00      11.099     0.000
  
  
  ***********************
  Outfall Loading Summary
  ***********************
  
  -----------------------------------------------------------
                         Flow       Avg       Max       Total
                         Freq      Flow      Flow      Volume
  Outfall Node           Pcnt       CMS       CMS    10^6 ltr
  -----------------------------------------------------------
  psk1                  95.01     0.129     0.225       2.086
  psk2                  94.73     0.318     0.559       5.110
  psk3                  94.93     0.533     0.945       8.555
  psk4                   0.00     0.000     0.000       0.000
  psk5                  94.85     0.133     0.231       2.146
  psk6                  94.73     0.109     0.192       1.756
  psk7                  94.97     0.807     1.380      13.025
  psk8                   0.00     0.000     0.000       0.000
  -----------------------------------------------------------
  System                71.15     2.029     0.000      32.679
  
  
  ********************
  Link Flow Summary
  ********************
  
  -----------------------------------------------------------------------------
                                 Maximum  Time of Max   Maximum    Max/    Max/
                                  |Flow|   Occurrence   |Veloc|    Full    Full
  Link                 Type          CMS  days hr:min     m/sec    Flow   Depth
  -----------------------------------------------------------------------------
  GQ1                  CONDUIT     0.138     0  04:02      1.63    0.36    0.34
  GQ2                  CONDUIT     0.358     0  04:02      1.87    0.17    0.29
  GQ3                  CONDUIT     0.225     0  04:00      4.55    0.01    0.07
  GQ4                  CONDUIT     0.510     0  03:56      1.80    1.00    1.00
  GQ5                  CONDUIT     0.454     0  04:02      1.19    0.38    0.71
  GQ6                  CONDUIT     0.125     0  04:00      1.02    0.06    0.29
  GQ7                  CONDUIT     1.492     0  04:05      3.55    0.89    0.88
  GQ8                  CONDUIT     0.242     0  04:01      0.90    0.23    0.54
  GQ9                  CONDUIT     0.656     0  04:01      1.85    0.23    0.66
  GQ10                 CONDUIT     1.135     0  03:15      4.10    1.04    1.00
  GQ11                 CONDUIT     0.074     0  04:00      1.43    0.08    0.26
  GQ12                 CONDUIT     0.084     0  04:00      0.47    0.09    0.60
  GQ13                 CONDUIT     0.059     0  04:00      0.43    0.03    0.56
  GQ14                 CONDUIT     0.028     0  04:00      0.74    0.04    0.13
  GQ15                 CONDUIT     0.079     0  04:00      3.50    0.32    0.36
  GQ16                 CONDUIT     0.483     0  04:02      3.08    0.23    0.25
  GQ17                 CONDUIT     0.137     0  04:00      1.01    0.04    0.32
  GQ18                 CONDUIT     0.979     0  04:00      2.43    4.41    0.75
  GQ19                 CONDUIT     0.181     0  04:00      1.22    0.02    0.25
  GQ20                 CONDUIT     0.040     0  04:00      0.39    0.02    0.19
  GQ21                 CONDUIT     0.146     0  04:00      1.20    0.05    0.21
  GQ22                 CONDUIT     0.148     0  04:00      1.39    0.05    0.19
  GQ23                 CONDUIT     0.257     0  04:01      1.79    0.13    0.24
  GQ24                 CONDUIT     0.383     0  04:00      1.11    0.19    0.65
  GQ25                 CONDUIT     0.250     0  04:00      2.86    0.28    0.35
  GQ26                 CONDUIT     0.196     0  04:00      2.14    0.23    0.36
  GQ27                 CONDUIT     0.325     0  04:00      1.55    0.33    0.70
  GQ28                 CONDUIT     0.147     0  04:00      0.44    0.16    0.63
  GQ29                 CONDUIT     0.483     0  03:05      0.96    0.23    1.00
  GQ30                 CONDUIT     0.583     0  04:00      2.06    0.71    1.00
  GQ31                 CONDUIT     0.218     0  04:00      1.06    0.29    0.68
  GQ32                 CONDUIT     0.322     0  04:02      2.58    0.52    0.45
  GQ33                 CONDUIT     0.828     0  04:02      3.53    0.58    0.77
  GQ34                 CONDUIT     0.153     0  04:01      1.28    0.24    0.44
  GQ35                 CONDUIT     0.299     0  04:00      1.93    0.55    0.54
  GQ36                 CONDUIT     0.447     0  04:00      2.63    0.55    0.58
  GQ37                 CONDUIT     0.196     0  04:01      0.96    0.28    0.68
  GQ38                 CONDUIT     0.073     0  04:01      0.41    0.10    0.61
  GQ39                 CONDUIT     0.328     0  04:01      1.49    0.42    0.73
  GQ40                 CONDUIT     0.226     0  04:01      2.09    0.28    0.41
  GQ41                 CONDUIT     0.650     0  04:01      1.13    0.30    0.69
  GQ42                 CONDUIT     1.010     0  04:07      2.16    0.74    0.88
  GQ43                 CONDUIT     1.189     0  04:02      3.77    0.53    0.63
  GQ44                 CONDUIT     0.862     0  04:00      1.71    0.91    1.00
  GQ45                 CONDUIT     0.389     0  04:00      1.80    0.16    0.63
  GQ46                 CONDUIT     0.772     0  04:00      1.83    0.72    1.00
  GQ47                 CONDUIT     0.065     0  04:00      0.38    0.06    0.58
  GQ48                 CONDUIT     0.064     0  04:00      0.38    0.06    0.58
  GQ49                 CONDUIT     0.243     0  04:00      1.36    0.09    0.60
  GQ50                 CONDUIT     0.070     0  04:00      0.88    0.09    0.32
  GQ51                 CONDUIT     0.268     0  04:00      2.14    0.41    0.45
  GQ52                 CONDUIT     0.199     0  04:08      0.73    0.26    0.68
  GQ53                 CONDUIT     1.330     0  04:04      1.97    0.60    0.80
  GQ54                 CONDUIT     0.155     0  04:00      0.83    0.13    0.62
  GQ55                 CONDUIT     0.116     0  04:00      0.66    0.08    0.59
  GQ56                 CONDUIT     1.481     0  04:01      3.93    0.81    0.72
  GQ57                 CONDUIT     0.210     0  04:01      0.93    0.14    0.47
  GQ58                 CONDUIT     0.438     0  04:01      1.33    0.14    0.63
  GQ59                 CONDUIT     0.962     0  04:07      2.06    0.80    0.88
  GQ60                 CONDUIT     0.720     0  04:01      0.60    0.17    0.64
  GQ61                 CONDUIT     0.099     0  04:00      0.20    0.01    0.54
  GQ62                 CONDUIT     0.207     0  04:00      0.27    0.02    0.55
  GQ63                 CONDUIT     0.471     0  04:00      0.51    0.01    0.54
  GQ64                 CONDUIT     0.034     0  04:00      1.04    0.03    0.18
  GQ65                 CONDUIT     0.015     0  04:00      0.26    0.03    0.25
  GQ66                 CONDUIT     0.059     0  04:00      0.37    0.02    0.55
  GQ67                 CONDUIT     0.321     0  03:25      0.30    0.22    1.00
  GQ68                 CONDUIT     0.246     0  04:00      0.51    0.08    0.59
  GQ69                 CONDUIT     0.539     0  04:00      1.56    0.19    0.65
  GQ70                 CONDUIT     0.192     0  04:00      6.03    0.03    0.11
  GQ71                 CONDUIT     0.231     0  04:00      4.41    0.06    0.16
  GQ72                 CONDUIT     1.380     0  04:00      4.78    0.33    0.40
  GQ73                 CONDUIT     0.559     0  04:01      9.27    0.04    0.13
  GQ74                 CONDUIT     0.121     0  04:00      1.05    0.02    0.20
  GQ75                 CONDUIT     0.126     0  04:01      0.27    0.04    0.57
  GQ76                 CONDUIT     0.945     0  04:01      4.62    0.20    0.31
  GQ77                 CONDUIT     0.000     0  00:00      0.00    0.00    0.14
  GQ78                 CONDUIT     0.416     0  04:01      1.86    0.45    0.74
  GQ79                 CONDUIT     0.220     0  04:00      1.08    0.47    0.68
  GQ80                 CONDUIT     0.179     0  04:01      0.80    0.29    0.74
  GQ81                 CONDUIT     0.434     0  03:05      1.53    2.75    1.00
  GQ82                 CONDUIT     0.204     0  04:00      1.10    0.14    0.63
  GQ83                 CONDUIT     0.220     0  04:00      2.22    0.14    0.38
  GQ84                 CONDUIT     0.423     0  04:00      2.25    0.34    0.65
  GQ85                 CONDUIT     0.148     0  04:00      0.70    0.26    0.70
  GQ86                 CONDUIT     0.061     0  04:00      0.38    0.03    0.56
  GQ87                 CONDUIT     0.022     0  04:00      0.13    0.03    0.56
  GQ88                 CONDUIT     0.149     0  04:00      0.81    0.13    0.62
  GQ89                 CONDUIT     0.123     0  04:00      0.65    0.16    0.64
  GQ90                 CONDUIT     0.126     0  04:00      0.68    0.13    0.62
  GQ91                 CONDUIT     0.106     0  04:00      0.57    0.13    0.62
  GQ92                 CONDUIT     0.250     0  04:01      1.46    0.36    0.37
  GQ93                 CONDUIT     0.264     0  04:02      1.26    0.23    0.44
  GQ94                 CONDUIT     0.487     0  04:02      1.89    0.58    0.53
  GQ95                 CONDUIT     0.069     0  04:00      0.24    0.02    0.55
  GQ96                 CONDUIT     0.223     0  04:00      1.09    0.38    0.43
  GQ97                 CONDUIT     0.125     0  04:00      1.60    0.22    0.32
  GQ98                 CONDUIT     0.152     0  04:00      0.77    0.22    0.66
  GQ99                 CONDUIT     0.225     0  04:00      0.35    0.01    0.54
  GQ100                CONDUIT     0.161     0  04:00      2.30    0.28    0.30
  GQ101                CONDUIT     0.112     0  04:00      0.63    0.08    0.60
  GQ102                CONDUIT     0.431     0  04:00      1.31    0.13    0.62
  GQ103                CONDUIT     0.220     0  04:00      1.04    0.34    0.70
  GQ104                CONDUIT     0.387     0  04:01      1.88    0.28    0.68
  GQ105                CONDUIT     0.381     0  02:50      0.76    1.21    1.00
  GQ106                CONDUIT     0.128     0  04:00      0.69    0.13    0.62
  GQ107                CONDUIT     0.467     0  04:01      2.13    0.42    0.73
  GQ108                CONDUIT     0.829     0  04:33      1.65    1.00    1.00
  GQ109                CONDUIT     0.091     0  04:00      1.09    0.12    0.34
  GQ110                CONDUIT     0.150     0  04:00      0.35    0.02    0.55
  GQ111                CONDUIT     0.136     0  04:00      0.74    0.12    0.62
  GQ112                CONDUIT     0.414     0  04:00      2.32    0.07    0.22
  GQ113                CONDUIT     0.229     0  04:00      2.87    0.17    0.32
  GQ114                CONDUIT     0.138     0  04:00      0.28    0.06    0.59
  GQ115                CONDUIT     0.059     0  04:00      0.77    0.01    0.12
  GQ116                CONDUIT     0.086     0  04:00      0.20    0.01    0.54
  GQ117                CONDUIT     0.304     0  04:00      3.48    0.19    0.23
  GQ118                CONDUIT     0.115     0  04:00      1.34    0.04    0.24
  GQ119                CONDUIT     1.245     0  04:02      3.03    0.54    0.76
  GQ120                CONDUIT     0.000     0  00:00      0.00    0.00    0.50
  GQ121                CONDUIT     0.419     0  04:00      0.83    0.30    1.00
  GQ122                CONDUIT     0.175     0  04:00      1.34    0.03    0.56
  GQ123                CONDUIT     0.117     0  04:00      0.95    0.06    0.58
  GQ124                CONDUIT     0.073     0  04:00      0.78    0.03    0.25
  GQ125                CONDUIT     0.145     0  04:00      0.76    0.16    0.64
  GQ126                CONDUIT     0.179     0  04:00      0.94    0.17    0.64
  GQ127                CONDUIT     0.416     0  04:02      1.57    0.53    0.52
  GQ128                CONDUIT     0.610     0  04:01      2.28    0.13    0.30
  GQ129                CONDUIT     1.085     0  04:02      2.16    0.83    1.00
  GQ130                CONDUIT     0.997     0  04:02      3.53    0.93    1.00
  GQ131                CONDUIT     0.353     0  04:00      1.61    0.41    0.72
  
  
  ***************************
  Flow Classification Summary
  ***************************
  
  -------------------------------------------------------------------------------------
                      Adjusted    ---------- Fraction of Time in Flow Class ---------- 
                       /Actual         Up    Down  Sub   Sup   Up    Down  Norm  Inlet 
  Conduit               Length    Dry  Dry   Dry   Crit  Crit  Crit  Crit  Ltd   Ctrl  
  -------------------------------------------------------------------------------------
  GQ1                     1.00   0.05  0.00  0.00  0.05  0.90  0.00  0.00  0.00  0.00
  GQ2                     1.00   0.05  0.00  0.00  0.09  0.86  0.00  0.00  0.86  0.00
  GQ3                     1.00   0.05  0.00  0.00  0.00  0.95  0.00  0.00  0.15  0.00
  GQ4                     1.00   0.05  0.00  0.00  0.95  0.00  0.00  0.00  0.44  0.00
  GQ5                     1.00   0.05  0.00  0.00  0.95  0.00  0.00  0.00  0.85  0.00
  GQ6                     1.00   0.05  0.00  0.00  0.95  0.00  0.00  0.00  0.85  0.00
  GQ7                     1.00   0.05  0.00  0.00  0.01  0.94  0.00  0.00  0.27  0.00
  GQ8                     1.00   0.05  0.00  0.00  0.95  0.00  0.00  0.00  0.83  0.00
  GQ9                     1.00   0.05  0.00  0.00  0.94  0.01  0.00  0.00  0.86  0.00
  GQ10                    1.00   0.05  0.00  0.00  0.70  0.26  0.00  0.00  0.52  0.00
  GQ11                    1.00   0.05  0.00  0.00  0.29  0.66  0.00  0.00  0.84  0.00
  GQ12                    1.00   0.05  0.00  0.00  0.94  0.01  0.00  0.00  0.86  0.00
  GQ13                    1.00   0.05  0.00  0.00  0.95  0.00  0.00  0.00  0.86  0.00
  GQ14                    1.00   0.05  0.00  0.00  0.95  0.00  0.00  0.00  0.00  0.00
  GQ15                    1.00   0.05  0.00  0.00  0.00  0.95  0.00  0.00  0.01  0.00
  GQ16                    1.00   0.05  0.00  0.00  0.01  0.94  0.00  0.00  0.00  0.00
  GQ17                    1.00   0.05  0.00  0.00  0.82  0.13  0.00  0.00  0.86  0.00
  GQ18                    1.00   0.05  0.00  0.00  0.85  0.11  0.00  0.00  0.15  0.00
  GQ19                    1.00   0.05  0.00  0.00  0.77  0.18  0.00  0.00  0.86  0.00
  GQ20                    1.00   0.05  0.00  0.00  0.95  0.00  0.00  0.00  0.86  0.00
  GQ21                    1.00   0.05  0.00  0.00  0.52  0.43  0.00  0.00  0.86  0.00
  GQ22                    1.00   0.05  0.00  0.00  0.03  0.92  0.00  0.00  0.86  0.00
  GQ23                    1.00   0.05  0.00  0.00  0.02  0.93  0.00  0.00  0.11  0.00
  GQ24                    1.00   0.05  0.00  0.00  0.95  0.00  0.00  0.00  0.86  0.00
  GQ25                    1.00   0.05  0.00  0.00  0.00  0.95  0.00  0.00  0.02  0.00
  GQ26                    1.00   0.05  0.00  0.00  0.00  0.95  0.00  0.00  0.77  0.00
  GQ27                    1.00   0.05  0.00  0.00  0.83  0.12  0.00  0.00  0.86  0.00
  GQ28                    1.00   0.05  0.00  0.00  0.95  0.00  0.00  0.00  0.86  0.00
  GQ29                    1.00   0.05  0.00  0.00  0.95  0.00  0.00  0.00  0.25  0.00
  GQ30                    1.00   0.05  0.00  0.00  0.92  0.03  0.00  0.00  0.21  0.00
  GQ31                    1.00   0.05  0.00  0.00  0.95  0.00  0.00  0.00  0.86  0.00
  GQ32                    1.00   0.05  0.00  0.00  0.01  0.94  0.00  0.00  0.00  0.00
  GQ33                    1.00   0.05  0.00  0.00  0.41  0.54  0.00  0.00  0.86  0.00
  GQ34                    1.00   0.05  0.00  0.00  0.95  0.00  0.00  0.00  0.86  0.00
  GQ35                    1.00   0.05  0.00  0.00  0.01  0.94  0.00  0.00  0.48  0.00
  GQ36                    1.00   0.05  0.00  0.00  0.00  0.95  0.00  0.00  0.79  0.00
  GQ37                    1.00   0.05  0.00  0.00  0.95  0.00  0.00  0.00  0.86  0.00
  GQ38                    1.00   0.05  0.00  0.00  0.95  0.00  0.00  0.00  0.86  0.00
  GQ39                    1.00   0.05  0.00  0.00  0.92  0.03  0.00  0.00  0.85  0.00
  GQ40                    1.00   0.05  0.00  0.00  0.03  0.92  0.00  0.00  0.86  0.00
  GQ41                    1.00   0.05  0.00  0.00  0.95  0.00  0.00  0.00  0.86  0.00
  GQ42                    1.00   0.05  0.00  0.00  0.95  0.00  0.00  0.00  0.60  0.00
  GQ43                    1.00   0.05  0.00  0.00  0.01  0.94  0.00  0.00  0.86  0.00
  GQ44                    1.00   0.05  0.00  0.00  0.95  0.00  0.00  0.00  0.45  0.00
  GQ45                    1.00   0.05  0.00  0.00  0.54  0.41  0.00  0.00  0.86  0.00
  GQ46                    1.00   0.05  0.00  0.00  0.61  0.34  0.00  0.00  0.37  0.00
  GQ47                    1.00   0.05  0.00  0.00  0.95  0.00  0.00  0.00  0.86  0.00
  GQ48                    1.00   0.05  0.00  0.00  0.95  0.00  0.00  0.00  0.86  0.00
  GQ49                    1.00   0.05  0.00  0.00  0.93  0.02  0.00  0.00  0.86  0.00
  GQ50                    1.00   0.05  0.00  0.00  0.95  0.00  0.00  0.00  0.86  0.00
  GQ51                    1.00   0.05  0.00  0.00  0.01  0.94  0.00  0.00  0.52  0.00
  GQ52                    1.00   0.05  0.00  0.00  0.95  0.00  0.00  0.00  0.67  0.00
  GQ53                    1.00   0.05  0.00  0.00  0.95  0.00  0.00  0.00  0.63  0.00
  GQ54                    1.00   0.05  0.00  0.00  0.95  0.00  0.00  0.00  0.86  0.00
  GQ55                    1.00   0.05  0.00  0.00  0.94  0.01  0.00  0.00  0.86  0.00
  GQ56                    1.00   0.05  0.00  0.00  0.00  0.95  0.00  0.00  0.53  0.00
  GQ57                    1.00   0.05  0.00  0.00  0.95  0.00  0.00  0.00  0.86  0.00
  GQ58                    1.00   0.05  0.00  0.00  0.95  0.00  0.00  0.00  0.86  0.00
  GQ59                    1.00   0.05  0.00  0.00  0.95  0.00  0.00  0.00  0.63  0.00
  GQ60                    1.00   0.05  0.00  0.00  0.95  0.00  0.00  0.00  0.31  0.00
  GQ61                    1.00   0.05  0.00  0.00  0.95  0.00  0.00  0.00  0.86  0.00
  GQ62                    1.00   0.05  0.00  0.00  0.95  0.00  0.00  0.00  0.86  0.00
  GQ63                    1.00   0.05  0.00  0.00  0.92  0.03  0.00  0.00  0.86  0.00
  GQ64                    1.00   0.05  0.00  0.00  0.26  0.69  0.00  0.00  0.86  0.00
  GQ65                    1.00   0.05  0.00  0.00  0.95  0.00  0.00  0.00  0.86  0.00
  GQ66                    1.00   0.05  0.00  0.00  0.94  0.01  0.00  0.00  0.86  0.00
  GQ67                    1.00   0.05  0.00  0.00  0.95  0.00  0.00  0.00  0.23  0.00
  GQ68                    1.00   0.05  0.00  0.00  0.95  0.00  0.00  0.00  0.86  0.00
  GQ69                    1.00   0.05  0.00  0.00  0.92  0.03  0.00  0.00  0.85  0.00
  GQ70                    1.00   0.05  0.00  0.00  0.00  0.94  0.00  0.00  0.08  0.00
  GQ71                    1.00   0.05  0.00  0.00  0.00  0.95  0.00  0.00  0.14  0.00
  GQ72                    1.00   0.05  0.00  0.00  0.00  0.95  0.00  0.00  0.30  0.00
  GQ73                    1.00   0.05  0.00  0.00  0.00  0.94  0.00  0.00  0.09  0.00
  GQ74                    1.00   0.05  0.00  0.00  0.83  0.12  0.00  0.00  0.86  0.00
  GQ75                    1.00   0.05  0.00  0.00  0.95  0.00  0.00  0.00  0.86  0.00
  GQ76                    1.00   0.05  0.00  0.00  0.00  0.95  0.00  0.00  0.23  0.00
  GQ77                    1.00   0.05  0.95  0.00  0.00  0.00  0.00  0.00  0.00  0.00
  GQ78                    1.00   0.05  0.00  0.00  0.95  0.00  0.00  0.00  0.86  0.00
  GQ79                    1.00   0.05  0.00  0.00  0.95  0.00  0.00  0.00  0.22  0.00
  GQ80                    1.00   0.05  0.00  0.00  0.95  0.00  0.00  0.00  0.54  0.00
  GQ81                    1.00   0.05  0.00  0.00  0.95  0.00  0.00  0.00  0.00  0.00
  GQ82                    1.00   0.05  0.00  0.00  0.89  0.06  0.00  0.00  0.85  0.00
  GQ83                    1.00   0.05  0.00  0.00  0.00  0.95  0.00  0.00  0.85  0.00
  GQ84                    1.00   0.05  0.00  0.00  0.10  0.85  0.00  0.00  0.85  0.00
  GQ85                    1.00   0.05  0.00  0.00  0.95  0.00  0.00  0.00  0.56  0.00
  GQ86                    1.00   0.05  0.00  0.00  0.94  0.01  0.00  0.00  0.86  0.00
  GQ87                    1.00   0.05  0.00  0.00  0.95  0.00  0.00  0.00  0.86  0.00
  GQ88                    1.00   0.05  0.00  0.00  0.95  0.00  0.00  0.00  0.86  0.00
  GQ89                    1.00   0.05  0.00  0.00  0.95  0.00  0.00  0.00  0.86  0.00
  GQ90                    1.00   0.05  0.00  0.00  0.92  0.03  0.00  0.00  0.86  0.00
  GQ91                    1.00   0.05  0.00  0.00  0.94  0.01  0.00  0.00  0.86  0.00
  GQ92                    1.00   0.05  0.00  0.00  0.78  0.17  0.00  0.00  0.00  0.00
  GQ93                    1.00   0.05  0.00  0.00  0.95  0.00  0.00  0.00  0.86  0.00
  GQ94                    1.00   0.05  0.00  0.00  0.44  0.51  0.00  0.00  0.00  0.00
  GQ95                    1.00   0.05  0.00  0.00  0.95  0.00  0.00  0.00  0.86  0.00
  GQ96                    1.00   0.05  0.00  0.00  0.95  0.00  0.00  0.00  0.30  0.00
  GQ97                    1.00   0.05  0.00  0.00  0.01  0.94  0.00  0.00  0.24  0.00
  GQ98                    1.00   0.05  0.00  0.00  0.95  0.00  0.00  0.00  0.86  0.00
  GQ99                    1.00   0.05  0.00  0.00  0.95  0.00  0.00  0.00  0.86  0.00
  GQ100                   1.00   0.05  0.00  0.00  0.01  0.94  0.00  0.00  0.00  0.00
  GQ101                   1.00   0.05  0.00  0.00  0.93  0.02  0.00  0.00  0.86  0.00
  GQ102                   1.00   0.05  0.00  0.00  0.91  0.04  0.00  0.00  0.86  0.00
  GQ103                   1.00   0.05  0.00  0.00  0.95  0.00  0.00  0.00  0.86  0.00
  GQ104                   1.00   0.05  0.00  0.00  0.94  0.02  0.00  0.00  0.86  0.00
  GQ105                   1.00   0.05  0.00  0.00  0.95  0.00  0.00  0.00  0.20  0.00
  GQ106                   1.00   0.05  0.00  0.00  0.93  0.02  0.00  0.00  0.86  0.00
  GQ107                   1.00   0.05  0.00  0.00  0.63  0.32  0.00  0.00  0.86  0.00
  GQ108                   1.00   0.05  0.00  0.00  0.95  0.00  0.00  0.00  0.26  0.00
  GQ109                   1.00   0.05  0.00  0.00  0.81  0.14  0.00  0.00  0.84  0.00
  GQ110                   1.00   0.05  0.00  0.00  0.93  0.02  0.00  0.00  0.86  0.00
  GQ111                   1.00   0.05  0.00  0.00  0.93  0.02  0.00  0.00  0.86  0.00
  GQ112                   1.00   0.05  0.00  0.00  0.01  0.95  0.00  0.00  0.85  0.00
  GQ113                   1.00   0.05  0.00  0.00  0.00  0.95  0.00  0.00  0.82  0.00
  GQ114                   1.00   0.05  0.00  0.00  0.95  0.00  0.00  0.00  0.23  0.00
  GQ115                   1.00   0.05  0.00  0.00  0.93  0.02  0.00  0.00  0.86  0.00
  GQ116                   1.00   0.05  0.00  0.00  0.95  0.00  0.00  0.00  0.86  0.00
  GQ117                   1.00   0.05  0.00  0.00  0.00  0.95  0.00  0.00  0.00  0.00
  GQ118                   1.00   0.05  0.00  0.00  0.28  0.67  0.00  0.00  0.85  0.00
  GQ119                   1.00   0.05  0.00  0.00  0.52  0.44  0.00  0.00  0.86  0.00
  GQ120                   1.00   0.05  0.14  0.00  0.81  0.00  0.00  0.00  0.00  0.00
  GQ121                   1.00   0.05  0.00  0.00  0.94  0.01  0.00  0.00  0.22  0.00
  GQ122                   1.00   0.05  0.00  0.00  0.84  0.11  0.00  0.00  0.86  0.00
  GQ123                   1.00   0.05  0.00  0.00  0.83  0.12  0.00  0.00  0.86  0.00
  GQ124                   1.00   0.05  0.00  0.00  0.95  0.00  0.00  0.00  0.86  0.00
  GQ125                   1.00   0.05  0.00  0.00  0.93  0.02  0.00  0.00  0.86  0.00
  GQ126                   1.00   0.05  0.00  0.00  0.94  0.01  0.00  0.00  0.86  0.00
  GQ127                   1.00   0.05  0.00  0.00  0.95  0.00  0.00  0.00  0.62  0.00
  GQ128                   1.00   0.05  0.00  0.00  0.01  0.94  0.00  0.00  0.70  0.00
  GQ129                   1.00   0.05  0.00  0.00  0.95  0.00  0.00  0.00  0.50  0.00
  GQ130                   1.00   0.05  0.00  0.00  0.79  0.16  0.00  0.00  0.50  0.00
  GQ131                   1.00   0.05  0.00  0.00  0.95  0.00  0.00  0.00  0.86  0.00
  
  
  *************************
  Conduit Surcharge Summary
  *************************
  
  ----------------------------------------------------------------------------
                                                           Hours        Hours 
                         --------- Hours Full --------   Above Full   Capacity
  Conduit                Both Ends  Upstream  Dnstream   Normal Flow   Limited
  ----------------------------------------------------------------------------
  GQ4                         1.96      1.96      4.28      0.01         0.01
  GQ5                         0.01      0.01      4.17      0.01         0.01
  GQ7                         0.01      0.01      1.59      0.01         0.01
  GQ9                         0.01      0.01      4.53      0.01         0.01
  GQ10                        2.21      2.21      4.60      0.09         0.01
  GQ12                        0.01      0.01      3.87      0.01         0.01
  GQ13                        0.01      0.01      1.61      0.01         0.01
  GQ18                        0.01      0.01      3.27      3.64         0.01
  GQ24                        0.01      0.01      4.41      0.01         0.01
  GQ27                        0.01      0.01      4.00      0.01         0.01
  GQ28                        0.01      0.01      4.21      0.01         0.01
  GQ29                        3.90      3.90      4.21      0.01         0.01
  GQ30                        4.00      4.00      4.31      0.01         0.01
  GQ31                        0.01      0.01      4.65      0.01         0.01
  GQ33                        0.01      0.01      4.65      0.01         0.01
  GQ37                        0.01      0.01      4.50      0.01         0.01
  GQ38                        0.01      0.01      4.50      0.01         0.01
  GQ39                        0.01      0.01      3.87      0.01         0.01
  GQ41                        0.01      0.01      4.18      0.01         0.01
  GQ42                        0.01      0.01      4.26      0.01         0.01
  GQ44                        2.08      2.08      3.27      0.01         0.01
  GQ45                        0.01      0.01      1.42      0.01         0.01
  GQ46                        1.42      1.42      2.08      0.01         0.01
  GQ47                        0.01      0.01      4.29      0.01         0.01
  GQ48                        0.01      0.01      4.38      0.01         0.01
  GQ49                        0.01      0.01      4.38      0.01         0.01
  GQ52                        0.01      0.01      3.90      0.01         0.01
  GQ53                        0.01      0.01      4.30      0.01         0.01
  GQ54                        0.01      0.01      4.40      0.01         0.01
  GQ55                        0.01      0.01      4.40      0.01         0.01
  GQ58                        0.01      0.01      4.08      0.01         0.01
  GQ59                        0.01      0.01      4.08      0.01         0.01
  GQ60                        0.01      0.01      0.42      0.01         0.01
  GQ61                        0.01      0.01      3.57      0.01         0.01
  GQ62                        0.01      0.01      3.65      0.01         0.01
  GQ63                        0.01      0.01      3.72      0.01         0.01
  GQ66                        0.01      0.01      3.74      0.01         0.01
  GQ67                        3.59      3.59      3.66      0.01         0.01
  GQ68                        0.01      0.01      3.91      0.01         0.01
  GQ69                        0.01      0.01      4.25      0.01         0.01
  GQ75                        0.01      0.01      3.90      0.01         0.01
  GQ78                        0.01      0.01      4.45      0.01         0.01
  GQ79                        0.01      0.01      4.45      0.01         0.01
  GQ80                        0.01      0.01      3.60      0.01         0.01
  GQ81                        3.54      3.60      3.87      3.35         1.04
  GQ82                        0.01      0.01      3.87      0.01         0.01
  GQ85                        0.01      0.01      4.68      0.01         0.01
  GQ86                        0.01      0.01      4.29      0.01         0.01
  GQ87                        0.01      0.01      4.29      0.01         0.01
  GQ88                        0.01      0.01      4.34      0.01         0.01
  GQ89                        0.01      0.01      3.99      0.01         0.01
  GQ90                        0.01      0.01      3.84      0.01         0.01
  GQ91                        0.01      0.01      4.11      0.01         0.01
  GQ95                        0.01      0.01      4.42      0.01         0.01
  GQ98                        0.01      0.01      4.24      0.01         0.01
  GQ99                        0.01      0.01      3.69      0.01         0.01
  GQ101                       0.01      0.01      4.11      0.01         0.01
  GQ102                       0.01      0.01      4.21      0.01         0.01
  GQ103                       0.01      0.01      4.35      0.01         0.01
  GQ104                       0.01      0.01      4.35      0.01         0.01
  GQ105                       4.15      4.15      4.21      3.72         0.01
  GQ106                       0.01      0.01      4.20      0.01         0.01
  GQ107                       0.01      0.01      4.20      0.01         0.01
  GQ108                       3.26      3.26      4.15      0.01         0.01
  GQ110                       0.01      0.01      3.90      0.01         0.01
  GQ111                       0.01      0.01      4.11      0.01         0.01
  GQ114                       0.01      0.01      4.37      0.01         0.01
  GQ116                       0.01      0.01      4.29      0.01         0.01
  GQ119                       0.01      0.01      4.40      0.01         0.01
  GQ120                       0.01      0.01      4.33      0.01         0.01
  GQ121                       4.19      4.19      4.40      0.01         0.01
  GQ122                       0.01      0.01      4.19      0.01         0.01
  GQ123                       0.01      0.01      4.22      0.01         0.01
  GQ125                       0.01      0.01      4.11      0.01         0.01
  GQ126                       0.01      0.01      4.11      0.01         0.01
  GQ129                       1.59      1.59      4.41      0.01         0.01
  GQ130                       1.83      1.83      4.84      0.01         0.01
  GQ131                       0.01      0.01      4.67      0.01         0.01
  

  Analysis begun on:  Sat Mar 25 16:17:10 2023
  Analysis ended on:  Sat Mar 25 16:17:12 2023
  Total elapsed time: 00:00:02