
  OWA STORM WATER MANAGEMENT MODEL - VERSION v5.1.14 (OWA 2022-07-31)
  --------------------------------------------------------------

  INP file created by DSDAConvertToSwmmTools 
  version 0.0.1 EcoVista 
  Title/Notes: 
  
  
  *********************************************************
  NOTE: The summary statistics displayed in this report are
  based on results found at every computational time step,  
  not just on results from each reporting time step.
  *********************************************************
  
  ****************
  Analysis Options
  ****************
  Flow Units ............... CMS
  Process Models:
    Rainfall/Runoff ........ YES
    RDII ................... NO
    Snowmelt ............... NO
    Groundwater ............ NO
    Flow Routing ........... YES
    Ponding Allowed ........ NO
    Water Quality .......... NO
  Infiltration Method ...... GREEN_AMPT
  Flow Routing Method ...... DYNWAVE
  Surcharge Method ......... EXTRAN
  Starting Date ............ 07/15/2020 00:00:00
  Ending Date .............. 07/15/2020 08:00:00
  Antecedent Dry Days ...... 0.0
  Report Time Step ......... 00:30:00
  Wet Time Step ............ 00:05:00
  Dry Time Step ............ 01:00:00
  Routing Time Step ........ 30.00 sec
  Variable Time Step ....... YES
  Maximum Trials ........... 8
  Number of Threads ........ 1
  Head Tolerance ........... 0.001500 m
  
  
  **************************        Volume         Depth
  Runoff Quantity Continuity     hectare-m            mm
  **************************     ---------       -------
  Total Precipitation ......       151.468        37.900
  Evaporation Loss .........         2.616         0.655
  Infiltration Loss ........        40.479        10.129
  Surface Runoff ...........       100.505        25.148
  Final Storage ............         8.083         2.022
  Continuity Error (%) .....        -0.142
  
  
  **************************        Volume        Volume
  Flow Routing Continuity        hectare-m      10^6 ltr
  **************************     ---------     ---------
  Dry Weather Inflow .......         0.000         0.000
  Wet Weather Inflow .......       100.371      1003.719
  Groundwater Inflow .......         0.000         0.000
  RDII Inflow ..............         0.000         0.000
  External Inflow ..........         0.000         0.000
  External Outflow .........         8.855        88.550
  Flooding Loss ............        89.932       899.333
  Evaporation Loss .........         0.000         0.000
  Exfiltration Loss ........         0.000         0.000
  Initial Stored Volume ....         0.000         0.000
  Final Stored Volume ......         1.415        14.153
  Continuity Error (%) .....         0.168
  
  
  *************************
  Highest Continuity Errors
  *************************
  Node jd51 (5.41%)
  Node jd64 (4.42%)
  Node jd59 (4.35%)
  Node jd31 (4.03%)
  Node jd55 (3.70%)
  
  
  ***************************
  Time-Step Critical Elements
  ***************************
  Link GQ73 (95.84%)
  
  
  ********************************
  Highest Flow Instability Indexes
  ********************************
  Link GQ67 (27)
  Link GQ114 (17)
  Link GQ29 (4)
  Link GQ93 (4)
  Link GQ121 (4)
  
  
  *************************
  Routing Time Step Summary
  *************************
  Minimum Time Step           :     3.78 sec
  Average Time Step           :     7.44 sec
  Maximum Time Step           :    30.00 sec
  Percent in Steady State     :     0.00
  Average Iterations per Step :     4.81
  Percent Not Converging      :    21.02
  
  
  ***************************
  Subcatchment Runoff Summary
  ***************************
  
  ------------------------------------------------------------------------------------------------------------------------------
                            Total      Total      Total      Total     Imperv       Perv      Total       Total     Peak  Runoff
                           Precip      Runon       Evap      Infil     Runoff     Runoff     Runoff      Runoff   Runoff   Coeff
  Subcatchment                 mm         mm         mm         mm         mm         mm         mm    10^6 ltr      CMS
  ------------------------------------------------------------------------------------------------------------------------------
  1                         37.90       0.00       0.39      21.23      15.23       0.00      15.23        6.03     0.65   0.402
  2                         37.90       0.00       0.70       8.07      26.83       0.00      26.83       24.27     2.65   0.708
  3                         37.90       0.00       0.73       6.91      28.11       0.00      28.11       11.25     1.22   0.742
  4                         37.90       0.00       0.75       5.94      29.14       0.00      29.14        2.45     0.26   0.769
  5                         37.90       0.00       0.67       9.65      25.76       0.00      25.76        3.19     0.34   0.680
  6                         37.90       0.00       0.64      10.86      24.71       0.00      24.71        2.30     0.25   0.652
  7                         37.90       0.00       0.66       9.70      25.47       0.00      25.47       11.11     1.21   0.672
  8                         37.90       0.00       0.84       2.12      32.41       0.00      32.41        4.51     0.49   0.855
  9                         37.90       0.00       0.87       1.06      33.43       0.00      33.43        3.91     0.43   0.882
  10                        37.90       0.00       0.75       6.16      28.81       0.00      28.81        6.49     0.71   0.760
  11                        37.90       0.00       0.81       3.62      31.01       0.00      31.01       15.37     1.68   0.818
  12                        37.90       0.00       0.64      10.90      24.52       0.00      24.52       11.96     1.30   0.647
  13                        37.90       0.00       0.80       4.09      30.61       0.00      30.61       13.85     1.51   0.808
  14                        37.90       0.00       0.80       4.13      30.68       0.00      30.68        5.79     0.63   0.810
  15                        37.90       0.00       0.74       6.66      28.33       0.00      28.33        9.58     1.04   0.747
  16                        37.90       0.00       0.76       5.51      29.34       0.00      29.34        8.67     0.94   0.774
  17                        37.90       0.00       0.72       7.56      27.51       0.00      27.51       11.51     1.25   0.726
  18                        37.90       0.00       0.82       2.98      31.59       0.00      31.59       13.04     1.42   0.833
  19                        37.90       0.00       0.82       3.12      31.44       0.00      31.44        7.07     0.77   0.829
  20                        37.90       0.00       0.81       3.33      31.10       0.00      31.10       16.69     1.82   0.821
  21                        37.90       0.00       0.87       1.12      33.25       0.00      33.25       10.43     1.14   0.877
  22                        37.90       0.00       0.85       1.79      32.61       0.00      32.61        4.01     0.44   0.860
  23                        37.90       0.00       0.78       4.64      30.03       0.00      30.03       17.19     1.88   0.792
  24                        37.90       0.00       0.76       5.79      28.98       0.00      28.98        5.14     0.56   0.765
  25                        37.90       0.00       0.81       3.56      31.17       0.00      31.17        6.31     0.69   0.822
  26                        37.90       0.00       0.69       8.65      26.35       0.00      26.35        9.25     1.01   0.695
  27                        37.90       0.00       0.83       2.84      31.54       0.00      31.54       13.33     1.46   0.832
  28                        37.90       0.00       0.84       2.09      32.29       0.00      32.29       15.27     1.67   0.852
  29                        37.90       0.00       0.75       5.88      29.11       0.00      29.11        6.80     0.74   0.768
  30                        37.90       0.00       0.86       1.28      33.36       0.00      33.36        2.39     0.26   0.880
  31                        37.90       0.00       0.87       0.80      33.58       0.00      33.58        7.40     0.81   0.886
  32                        37.90       0.00       0.85       1.69      32.74       0.00      32.74       14.15     1.54   0.864
  33                        37.90       0.00       0.86       1.23      33.11       0.00      33.11       11.67     1.27   0.874
  34                        37.90       0.00       0.80       3.84      30.83       0.00      30.83        9.04     0.98   0.814
  35                        37.90       0.00       0.83       2.86      31.70       0.00      31.70       13.15     1.43   0.836
  36                        37.90       0.00       0.68       9.03      26.23       0.00      26.23       10.32     1.12   0.692
  37                        37.90       0.00       0.85       2.05      32.42       0.00      32.42        7.20     0.78   0.856
  38                        37.90       0.00       0.79       4.29      30.45       0.00      30.45       11.61     1.26   0.803
  39                        37.90       0.00       0.72       7.54      27.57       0.00      27.57       11.64     1.27   0.727
  40                        37.90       0.00       0.80       4.10      30.61       0.00      30.61        7.00     0.76   0.808
  41                        37.90       0.00       0.81       3.34      31.38       0.00      31.38        6.19     0.67   0.828
  42                        37.90       0.00       0.81       3.37      31.11       0.00      31.11        7.68     0.84   0.821
  43                        37.90       0.00       0.68       8.86      26.24       0.00      26.24       20.74     2.26   0.692
  44                        37.90       0.00       0.73       6.91      27.98       0.00      27.98       13.52     1.48   0.738
  45                        37.90       0.00       0.69       8.79      26.35       0.00      26.35       19.07     2.08   0.695
  46                        37.90       0.00       0.66       9.80      25.59       0.00      25.59       12.79     1.39   0.675
  47                        37.90       0.00       0.70       8.38      26.71       0.00      26.71       31.14     3.39   0.705
  48                        37.90       0.00       0.83       2.62      31.71       0.00      31.71       18.40     2.01   0.837
  49                        37.90       0.00       0.76       5.61      29.05       0.00      29.05       19.66     2.15   0.766
  50                        37.90       0.00       0.84       2.13      32.01       0.00      32.01       12.58     1.38   0.845
  51                        37.90       0.00       0.81       3.68      30.67       0.00      30.67        5.74     0.63   0.809
  52                        37.90       0.00       0.39      21.26      15.26       0.00      15.26       15.66     1.69   0.403
  53                        37.90       0.00       0.57      13.80      21.99       0.00      21.99       23.42     2.53   0.580
  54                        37.90       0.00       0.70       8.16      26.98       0.00      26.98        6.58     0.72   0.712
  55                        37.90       0.00       0.40      20.87      15.60       0.00      15.60       12.31     1.33   0.412
  56                        37.90       0.00       0.15      31.48       5.98       0.00       5.98        4.87     0.52   0.158
  57                        37.90       0.00       0.79       4.22      30.30       0.00      30.30       25.17     2.75   0.799
  58                        37.90       0.00       0.74       6.69      28.29       0.00      28.29        4.66     0.51   0.747
  59                        37.90       0.00       0.72       7.44      27.78       0.00      27.78        3.54     0.38   0.733
  60                        37.90       0.00       0.27      26.49      10.53       0.00      10.53        3.02     0.32   0.278
  61                        37.90       0.00       0.42      20.15      16.16       0.00      16.16        6.09     0.66   0.426
  62                        37.90       0.00       0.58      13.19      22.38       0.00      22.38       26.22     2.85   0.590
  63                        37.90       0.00       0.79       4.18      30.23       0.00      30.23       58.47     6.39   0.798
  64                        37.90       0.00       0.59      12.74      22.91       0.00      22.91        4.92     0.53   0.605
  65                        37.90       0.00       0.81       3.70      30.69       0.00      30.69       20.64     2.26   0.810
  66                        37.90       0.00       0.63      10.96      24.34       0.00      24.34        6.20     0.68   0.642
  67                        37.90       0.00       0.59      12.72      22.98       0.00      22.98        7.43     0.80   0.606
  68                        37.90       0.00       0.71       7.70      27.44       0.00      27.44        3.05     0.33   0.724
  69                        37.90       0.00       0.42      20.17      16.33       0.00      16.33        5.22     0.56   0.431
  70                        37.90       0.00       0.59      12.95      22.63       0.00      22.63       18.62     2.02   0.597
  71                        37.90       0.00       0.73       7.08      27.98       0.00      27.98        3.43     0.37   0.738
  72                        37.90       0.00       0.77       5.41      29.49       0.00      29.49        3.67     0.40   0.778
  73                        37.90       0.00       0.69       8.46      26.82       0.00      26.82        4.46     0.48   0.708
  74                        37.90       0.00       0.66       9.84      25.55       0.00      25.55        5.50     0.60   0.674
  75                        37.90       0.00       0.74       6.71      28.33       0.00      28.33        4.08     0.44   0.748
  76                        37.90       0.00       0.77       5.09      29.83       0.00      29.83        2.89     0.31   0.787
  77                        37.90       0.00       0.82       2.92      31.70       0.00      31.70        3.43     0.37   0.837
  78                        37.90       0.00       0.80       4.15      30.57       0.00      30.57        3.36     0.37   0.807
  79                        37.90       0.00       0.35      23.09      13.60       0.00      13.60       14.42     1.55   0.359
  80                        37.90       0.00       0.66      10.00      25.22       0.00      25.22       15.79     1.72   0.666
  81                        37.90       0.00       0.67       9.56      25.61       0.00      25.61       11.16     1.22   0.676
  82                        37.90       0.00       0.64      10.76      24.54       0.00      24.54       22.50     2.45   0.647
  83                        37.90       0.00       0.80       3.98      30.80       0.00      30.80        3.76     0.41   0.813
  84                        37.90       0.00       0.75       5.89      29.01       0.00      29.01        3.46     0.38   0.765
  85                        37.90       0.00       0.89       0.29      34.16       0.00      34.16        3.18     0.35   0.901
  86                        37.90       0.00       0.82       3.20      31.45       0.00      31.45        4.63     0.50   0.830
  87                        37.90       0.00       0.87       0.81      33.52       0.00      33.52        4.41     0.48   0.884
  88                        37.90       0.00       0.78       4.73      30.14       0.00      30.14        2.89     0.31   0.795
  89                        37.90       0.00       0.82       3.05      31.63       0.00      31.63        6.09     0.66   0.835
  90                        37.90       0.00       0.89       0.01      34.51       0.00      34.51        0.40     0.04   0.911
  91                        37.90       0.00       0.74       6.35      28.40       0.00      28.40        6.19     0.68   0.749
  92                        37.90       0.00       0.82       2.95      31.68       0.00      31.68        3.96     0.43   0.836
  93                        37.90       0.00       0.67       9.41      25.83       0.00      25.83       13.22     1.44   0.682
  94                        37.90       0.00       0.60      12.28      23.48       0.00      23.48        1.65     0.18   0.619
  95                        37.90       0.00       0.89       0.04      34.37       0.00      34.37        0.75     0.08   0.907
  96                        37.90       0.00       0.72       7.34      27.79       0.00      27.79        3.40     0.37   0.733
  97                        37.90       0.00       0.87       0.80      33.63       0.00      33.63        3.34     0.36   0.887
  98                        37.90       0.00       0.72       7.16      27.97       0.00      27.97        3.45     0.37   0.738
  99                        37.90       0.00       0.36      22.68      14.02       0.00      14.02        5.20     0.56   0.370
  100                       37.90       0.00       0.40      20.97      15.57       0.00      15.57        4.00     0.43   0.411
  101                       37.90       0.00       0.41      20.56      15.90       0.00      15.90        7.79     0.84   0.420
  102                       37.90       0.00       0.67       9.64      25.67       0.00      25.67        6.26     0.68   0.677
  103                       37.90       0.00       0.22      28.45       8.77       0.00       8.77        3.19     0.34   0.231
  104                       37.90       0.00       0.15      31.51       5.92       0.00       5.92        5.74     0.61   0.156
  105                       37.90       0.00       0.73       6.73      28.36       0.00      28.36        3.71     0.40   0.748
  106                       37.90       0.00       0.40      21.02      15.50       0.00      15.50        3.78     0.41   0.409
  
  
  ******************
  Node Depth Summary
  ******************
  
  ---------------------------------------------------------------------------------
                                 Average  Maximum  Maximum  Time of Max    Reported
                                   Depth    Depth      HGL   Occurrence   Max Depth
  Node                 Type       Meters   Meters   Meters  days hr:min      Meters
  ---------------------------------------------------------------------------------
  jd1                  JUNCTION     0.14     0.22   273.22     0  05:00        0.22
  jd2                  JUNCTION     1.02     3.00   270.00     0  02:43        3.00
  jd3                  JUNCTION     2.72     3.00   266.00     0  02:14        3.00
  jd4                  JUNCTION     1.98     3.00   270.00     0  02:24        3.00
  jd5                  JUNCTION     0.10     0.15   274.15     0  05:00        0.15
  jd6                  JUNCTION     0.12     0.19   275.19     0  05:00        0.19
  jd7                  JUNCTION     0.37     0.53   264.63     0  05:00        0.53
  jd8                  JUNCTION     2.18     3.00   267.00     0  02:16        3.00
  jd9                  JUNCTION     2.00     3.00   268.00     0  02:19        3.00
  jd10                 JUNCTION     2.74     3.00   273.00     0  02:10        3.00
  jd11                 JUNCTION     0.11     0.17   282.17     0  05:00        0.17
  jd12                 JUNCTION     2.75     3.00   272.00     0  02:09        3.00
  jd13                 JUNCTION     0.13     0.22   289.22     0  05:00        0.22
  jd14                 JUNCTION     0.73     3.00   283.00     0  02:56        3.00
  jd15                 JUNCTION     0.32     0.57   278.57     0  05:00        0.57
  jd16                 JUNCTION     0.35     0.60   274.60     0  05:00        0.60
  jd17                 JUNCTION     2.34     3.00   278.80     0  02:19        3.00
  jd18                 JUNCTION     0.91     3.00   282.00     0  02:52        3.00
  jd19                 JUNCTION     1.86     3.00   270.00     0  02:21        3.00
  jd20                 JUNCTION     0.22     0.34   273.34     0  05:00        0.34
  jd21                 JUNCTION     2.72     3.00   273.00     0  02:14        3.00
  jd22                 JUNCTION     2.15     3.00   275.00     0  02:16        3.00
  jd23                 JUNCTION     0.29     0.55   278.55     0  05:00        0.55
  jd24                 JUNCTION     0.16     0.25   285.25     0  05:00        0.25
  jd25                 JUNCTION     0.27     0.47   279.47     0  05:00        0.47
  jd26                 JUNCTION     0.90     3.00   288.00     0  02:48        3.00
  jd27                 JUNCTION     0.25     0.42   291.42     0  05:00        0.42
  jd28                 JUNCTION     2.76     3.00   290.00     0  02:04        3.00
  jd29                 JUNCTION     0.11     0.17   299.17     0  05:00        0.17
  jd30                 JUNCTION     0.15     0.24   290.24     0  05:00        0.24
  jd31                 JUNCTION     1.10     3.00   275.00     0  02:21        1.61
  jd32                 JUNCTION     2.75     3.00   275.00     0  02:08        3.00
  jd33                 JUNCTION     0.22     0.36   289.36     0  05:00        0.36
  jd34                 JUNCTION     0.26     0.48   294.48     0  05:00        0.48
  jd35                 JUNCTION     2.80     3.00   292.00     0  01:52        3.00
  jd36                 JUNCTION     1.39     3.00   302.00     0  02:35        3.00
  jd37                 JUNCTION     1.25     3.00   306.00     0  02:35        3.00
  jd38                 JUNCTION     0.48     0.85   297.85     0  05:00        0.85
  jd39                 JUNCTION     2.73     3.00   297.00     0  02:14        3.00
  jd40                 JUNCTION     1.86     3.00   302.00     0  02:30        3.00
  jd41                 JUNCTION     2.67     3.00   296.00     0  02:25        3.00
  jd42                 JUNCTION     0.22     0.37   305.37     0  05:00        0.37
  jd43                 JUNCTION     1.82     3.00   300.00     0  02:23        3.00
  jd44                 JUNCTION     1.82     3.00   286.00     0  02:28        3.00
  jd45                 JUNCTION     2.74     3.00   282.00     0  02:12        3.00
  jd46                 JUNCTION     0.33     0.56   275.56     0  05:00        0.56
  jd47                 JUNCTION     0.18     0.28   315.28     0  05:00        0.28
  jd48                 JUNCTION     0.12     0.20   325.20     0  05:00        0.20
  jd49                 JUNCTION     0.30     0.50   289.50     0  05:00        0.50
  jd50                 JUNCTION     2.77     3.00   278.00     0  02:02        3.00
  jd51                 JUNCTION     2.66     3.00   313.00     0  02:26        3.00
  jd52                 JUNCTION     0.99     3.00   326.00     0  02:42        2.01
  jd53                 JUNCTION     1.34     3.00   325.00     0  02:38        3.00
  jd54                 JUNCTION     0.32     0.52   326.52     0  05:00        0.52
  jd55                 JUNCTION     1.95     3.00   325.00     0  02:23        3.00
  jd56                 JUNCTION     0.22     0.37   327.37     0  05:00        0.37
  jd59                 JUNCTION     2.64     3.00   320.80     0  02:28        3.00
  jd60                 JUNCTION     2.75     3.00   319.00     0  02:08        3.00
  jd61                 JUNCTION     0.16     0.26   329.26     0  05:00        0.26
  jd62                 JUNCTION     0.07     0.11   335.11     0  05:00        0.11
  jd63                 JUNCTION     0.08     0.12   324.12     0  05:00        0.12
  jd64                 JUNCTION     2.49     3.00   321.00     0  02:27        2.88
  jd65                 JUNCTION     2.21     3.00   307.00     0  02:16        3.00
  jd66                 JUNCTION     2.74     3.00   304.00     0  02:11        3.00
  jd69                 JUNCTION     0.26     0.43   333.43     0  05:00        0.43
  jd79                 JUNCTION     2.72     3.00   274.00     0  02:06        3.00
  jd80                 JUNCTION     2.40     3.00   279.00     0  02:12        3.00
  jd81                 JUNCTION     0.17     0.27   288.27     0  05:00        0.27
  jd83                 JUNCTION     2.81     3.00   323.00     0  01:50        3.00
  jd84                 JUNCTION     0.47     3.00   326.00     0  04:21        1.84
  jd85                 JUNCTION     2.74     3.00   324.00     0  02:09        3.00
  jd87                 JUNCTION     2.74     3.00   322.00     0  02:09        3.00
  jd89                 JUNCTION     0.18     0.29   324.29     0  05:00        0.29
  jd90                 JUNCTION     0.16     0.25   328.25     0  05:00        0.25
  jd92                 JUNCTION     0.16     0.26   326.26     0  05:00        0.26
  jd93                 JUNCTION     1.28     3.00   327.00     0  02:36        3.00
  jd94                 JUNCTION     0.56     3.00   329.20     0  02:54        1.80
  jd95                 JUNCTION     0.58     3.00   330.00     0  04:23        1.91
  jd96                 JUNCTION     2.76     3.00   308.00     0  02:06        3.00
  jd97                 JUNCTION     0.58     3.00   330.20     0  04:23        1.97
  jd98                 JUNCTION     0.22     0.36   329.36     0  05:00        0.36
  jd99                 JUNCTION     2.73     3.00   327.00     0  02:11        3.00
  jd101                JUNCTION     0.12     0.20   321.20     0  05:00        0.20
  jd102                JUNCTION     0.27     0.47   324.47     0  05:00        0.47
  jd103                JUNCTION     0.13     0.20   318.20     0  05:00        0.20
  jd106                JUNCTION     2.69     3.00   287.00     0  02:19        3.00
  jd107                JUNCTION     0.24     0.38   332.38     0  05:00        0.38
  jd108                JUNCTION     1.19     1.68   327.68     0  02:08        1.46
  jd109                JUNCTION     0.19     0.31   343.31     0  05:00        0.31
  jd110                JUNCTION     2.75     3.00   327.00     0  02:09        3.00
  jd111                JUNCTION     0.08     0.13   344.13     0  05:00        0.13
  jd112                JUNCTION     0.10     0.17   334.17     0  05:00        0.17
  jd113                JUNCTION     0.11     0.18   348.18     0  05:00        0.18
  jd114                JUNCTION     2.74     3.00   317.00     0  02:11        3.00
  jd117                JUNCTION     1.45     3.00   319.00     0  02:14        2.52
  jd118                JUNCTION     0.10     0.17   330.17     0  05:00        0.17
  jd120                JUNCTION     0.18     0.31   327.31     0  05:00        0.31
  jd121                JUNCTION     0.19     0.30   320.30     0  05:00        0.30
  jd122                JUNCTION     2.73     3.00   276.00     0  02:13        3.00
  jd123                JUNCTION     2.71     3.00   276.20     0  02:15        3.00
  jd124                JUNCTION     2.84     3.00   271.00     0  01:39        3.00
  jd125                JUNCTION     1.93     3.00   278.00     0  02:23        3.00
  jd126                JUNCTION     2.80     3.00   275.00     0  01:51        3.00
  jd135                JUNCTION     0.15     0.25   289.25     0  05:00        0.25
  jd136                JUNCTION     0.30     0.50   341.50     0  05:00        0.50
  psk1                 OUTFALL      0.10     0.17   279.17     0  05:00        0.17
  psk2                 OUTFALL      0.15     0.24   270.24     0  05:00        0.24
  psk3                 OUTFALL      0.35     0.60   271.60     0  05:00        0.60
  psk4                 OUTFALL      0.00     0.00   280.00     0  00:00        0.00
  psk5                 OUTFALL      0.14     0.22   263.22     0  05:00        0.22
  psk6                 OUTFALL      0.10     0.15   259.15     0  05:00        0.15
  psk7                 OUTFALL      0.37     0.53   262.53     0  05:00        0.53
  psk8                 OUTFALL      0.00     0.00   317.00     0  00:00        0.00
  
  
  *******************
  Node Inflow Summary
  *******************
  
  -------------------------------------------------------------------------------------------------
                                  Maximum  Maximum                  Lateral       Total        Flow
                                  Lateral    Total  Time of Max      Inflow      Inflow     Balance
                                   Inflow   Inflow   Occurrence      Volume      Volume       Error
  Node                 Type           CMS      CMS  days hr:min    10^6 ltr    10^6 ltr     Percent
  -------------------------------------------------------------------------------------------------
  jd1                  JUNCTION     0.651    1.003     0  05:00        6.02        9.59       0.199
  jd2                  JUNCTION     1.010    1.361     0  05:00        9.24        12.6       0.309
  jd3                  JUNCTION     1.211    2.929     0  05:00        11.1        31.2       1.263
  jd4                  JUNCTION     1.458    1.623     0  05:00        13.3        14.9       0.353
  jd5                  JUNCTION     0.426    0.709     0  05:00        3.91        6.66       0.092
  jd6                  JUNCTION     0.492    0.492     0  05:00        4.51        4.51       0.122
  jd7                  JUNCTION     0.248    2.284     0  05:00        2.29        26.8       0.249
  jd8                  JUNCTION     0.345    1.291     0  05:00        3.18        17.5       1.304
  jd9                  JUNCTION     0.265    1.332     0  05:00        2.44        17.7       0.359
  jd10                 JUNCTION     0.706    0.894     0  05:00        6.48        8.23       1.230
  jd11                 JUNCTION     1.042    1.042     0  05:00        9.56        9.56       0.142
  jd12                 JUNCTION     0.785    1.720     0  05:00        7.19        15.7       0.875
  jd13                 JUNCTION     1.422    1.422     0  05:00          13          13       0.124
  jd14                 JUNCTION     1.668    1.883     0  05:00        15.2        17.2       0.217
  jd15                 JUNCTION     0.686    1.673     0  05:00         6.3        14.4       0.568
  jd16                 JUNCTION     0.738    3.078     0  05:00        6.79        26.9       0.235
  jd17                 JUNCTION     1.543    3.355     0  05:00        14.1        34.3       2.330
  jd18                 JUNCTION     1.224    1.785     0  05:00        11.2        16.3       0.337
  jd19                 JUNCTION     1.136    2.042     0  05:00        10.4        20.1       0.268
  jd20                 JUNCTION     0.944    1.188     0  05:00        8.65        13.1       0.492
  jd21                 JUNCTION     0.438    2.729     0  05:00        4.01        29.3       1.137
  jd22                 JUNCTION     0.771    1.602     0  05:00        7.06        15.2       0.543
  jd23                 JUNCTION     0.762    2.253     0  05:00        6.99        19.9       0.187
  jd24                 JUNCTION     1.253    1.253     0  05:00        11.5        11.5       0.143
  jd25                 JUNCTION     0.985    1.432     0  05:00        9.03        13.1       0.264
  jd26                 JUNCTION     1.434    2.279     0  05:00        13.1        21.7       0.225
  jd27                 JUNCTION     1.476    2.158     0  05:00        13.5        21.7       0.231
  jd28                 JUNCTION     2.013    2.624     0  05:00        18.4        25.2       0.534
  jd29                 JUNCTION     0.807    0.807     0  05:00        7.39        7.39       0.079
  jd30                 JUNCTION     0.840    2.593     0  05:00        7.67        23.4       0.123
  jd31                 JUNCTION     0.561    1.319     0  02:19        5.13        11.1       4.197
  jd32                 JUNCTION     1.138    3.872     0  05:00        10.4        40.2       0.618
  jd33                 JUNCTION     1.121    1.951     0  05:00        10.3        17.5       0.139
  jd34                 JUNCTION     1.387    1.387     0  05:00        12.8        12.8       0.116
  jd35                 JUNCTION     1.265    3.255     0  05:00        11.6        35.7       0.371
  jd36                 JUNCTION     2.149    3.116     0  05:00        19.6        30.6       0.234
  jd37                 JUNCTION     2.259    2.259     0  05:00        20.7        20.7       0.185
  jd38                 JUNCTION     2.076    3.016     0  05:00          19        30.3       0.358
  jd39                 JUNCTION     1.438    4.054     0  05:00        13.2        46.6       1.082
  jd40                 JUNCTION     2.450    4.640     0  05:00        22.5        50.3       0.337
  jd41                 JUNCTION     1.721    5.714     0  05:00        15.8          58       3.773
  jd42                 JUNCTION     2.258    2.475     0  05:00        20.6        22.6       0.271
  jd43                 JUNCTION     2.533    4.429     0  05:00        23.4        41.5       0.413
  jd44                 JUNCTION     3.392    5.963     0  05:00        31.1        63.8       0.366
  jd45                 JUNCTION     1.377    3.602     0  05:00        12.6        42.1       0.764
  jd46                 JUNCTION     0.628    0.628     0  05:00        5.73        5.73       0.680
  jd47                 JUNCTION     2.024    2.024     0  05:00        18.6        18.6       0.083
  jd48                 JUNCTION     0.560    0.560     0  05:00        5.22        5.22       0.143
  jd49                 JUNCTION     2.751    2.751     0  05:00        25.1        25.1       0.213
  jd50                 JUNCTION     2.853    5.955     0  05:00        26.2        64.3       0.684
  jd51                 JUNCTION     0.596    2.745     0  05:00        5.49        25.2       5.721
  jd52                 JUNCTION     1.216    4.194     0  04:14        11.1        34.8       0.347
  jd53                 JUNCTION     0.676    2.581     0  02:35        6.18        29.1       0.189
  jd54                 JUNCTION     0.364    1.808     0  05:00        3.34        16.6       0.263
  jd55                 JUNCTION     0.663    2.502     0  05:00        6.08        21.1       3.847
  jd56                 JUNCTION     0.402    1.178     0  05:00         3.7        10.8       0.223
  jd59                 JUNCTION     0.399    1.983     0  05:00        3.67        17.8       4.550
  jd60                 JUNCTION     0.715    1.518     0  05:00        6.57          14       0.920
  jd61                 JUNCTION     0.803    0.903     0  05:00        7.42        8.35       0.164
  jd62                 JUNCTION     0.323    0.323     0  05:00        3.01        3.01       0.060
  jd63                 JUNCTION     0.444    0.444     0  05:00        4.08        4.08       0.104
  jd64                 JUNCTION     0.374    0.922     0  05:00        3.43        8.46       4.629
  jd65                 JUNCTION     6.394    6.394     0  05:00        58.4        58.4       0.155
  jd66                 JUNCTION     0.838    2.431     0  05:00        7.78        22.6       1.416
  jd69                 JUNCTION     1.550    1.593     0  05:00        14.4        14.8       0.221
  jd79                 JUNCTION     1.509    2.425     0  05:00        13.8        24.4       0.717
  jd80                 JUNCTION     1.676    2.284     0  05:00        15.4        20.5       0.734
  jd81                 JUNCTION     1.274    1.274     0  05:00        11.7        11.7       0.054
  jd83                 JUNCTION     1.327    1.780     0  05:00        12.3        15.8       0.552
  jd84                 JUNCTION     1.686    1.686     0  05:00        15.6        15.6       0.161
  jd85                 JUNCTION     0.383    0.627     0  05:00        3.53         5.8       1.449
  jd87                 JUNCTION     0.314    0.757     0  05:00        2.89        6.98       1.059
  jd89                 JUNCTION     0.366    0.366     0  05:00        3.36        3.36       0.227
  jd90                 JUNCTION     0.373    0.373     0  05:00        3.43        3.43       0.135
  jd92                 JUNCTION     0.314    0.314     0  05:00        2.88        2.88       0.120
  jd93                 JUNCTION     0.676    1.461     0  05:00        6.19        13.4       0.277
  jd94                 JUNCTION     0.043    0.785     0  05:00       0.395        7.19       0.210
  jd95                 JUNCTION     0.082    0.742     0  05:00       0.749        6.82       0.381
  jd96                 JUNCTION     0.611    0.816     0  05:00        5.73         7.6       1.266
  jd97                 JUNCTION     0.660    0.660     0  05:00        6.08        6.08       0.084
  jd98                 JUNCTION     0.369    0.369     0  05:00        3.39        3.39       0.127
  jd99                 JUNCTION     0.177    0.437     0  05:00        1.64        4.63       1.222
  jd101                JUNCTION     0.483    0.964     0  05:00        4.45        8.84       0.083
  jd102                JUNCTION     0.481    0.481     0  05:00         4.4         4.4       0.196
  jd103                JUNCTION     0.331    0.331     0  05:00        3.05        3.05       0.063
  jd106                JUNCTION     0.259    1.550     0  05:00        2.39        14.1       2.783
  jd107                JUNCTION     0.374    1.230     0  05:00        3.44        11.3       0.256
  jd108                JUNCTION     0.407    0.407     0  05:00        3.78        3.79       1.740
  jd109                JUNCTION     0.680    0.680     0  05:00        6.25        6.25       0.057
  jd110                JUNCTION     0.517    0.769     0  05:00        4.87        7.22       2.091
  jd111                JUNCTION     0.429    0.429     0  05:00        3.99        3.99       0.106
  jd112                JUNCTION     0.504    1.401     0  05:00        4.63          13       0.101
  jd113                JUNCTION     0.339    0.339     0  05:00        3.18        3.18       0.017
  jd114                JUNCTION     0.409    3.945     0  05:00        3.76        43.6       0.722
  jd117                JUNCTION     0.377    1.234     0  05:00        3.46        11.5       1.333
  jd118                JUNCTION     0.345    0.345     0  05:00        3.17        3.17       0.018
  jd120                JUNCTION     0.431    0.431     0  05:00        3.96        3.96       0.109
  jd121                JUNCTION     0.533    0.533     0  05:00        4.91        4.91       0.137
  jd122                JUNCTION     1.265    4.632     0  05:00        11.6        46.6       1.192
  jd123                JUNCTION     1.300    3.607     0  05:00        11.9        42.3       1.638
  jd124                JUNCTION     1.876    2.950     0  05:00        17.2        33.9       0.173
  jd125                JUNCTION     1.825    3.500     0  05:00        16.7          41       0.180
  jd126                JUNCTION     2.650    3.512     0  05:00        24.2        33.2       0.309
  jd135                JUNCTION     0.673    0.673     0  05:00        6.18        6.18       0.094
  jd136                JUNCTION     0.558    0.897     0  05:00        5.19        8.38       0.266
  psk1                 OUTFALL      0.000    0.676     0  05:00           0         6.2       0.000
  psk2                 OUTFALL      0.000    1.961     0  05:00           0        17.4       0.000
  psk3                 OUTFALL      0.000    3.076     0  05:00           0        26.8       0.000
  psk4                 OUTFALL      0.000    0.000     0  00:00           0           0       0.000 ltr
  psk5                 OUTFALL      0.000    0.651     0  05:00           0        6.22       0.000
  psk6                 OUTFALL      0.000    0.544     0  05:00           0        5.11       0.000
  psk7                 OUTFALL      0.000    2.284     0  05:00           0        26.8       0.000
  psk8                 OUTFALL      0.000    0.000     0  00:00           0           0       0.000 ltr
  
  
  **********************
  Node Surcharge Summary
  **********************
  
  Surcharging occurs when water rises above the top of the highest conduit.
  ---------------------------------------------------------------------
                                               Max. Height   Min. Depth
                                   Hours       Above Crown    Below Rim
  Node                 Type      Surcharged         Meters       Meters
  ---------------------------------------------------------------------
  jd2                  JUNCTION        1.58          2.200        0.000
  jd3                  JUNCTION        5.76          2.200        0.000
  jd4                  JUNCTION        3.54          2.200        0.000
  jd8                  JUNCTION        4.48          2.200        0.000
  jd9                  JUNCTION        3.74          2.200        0.000
  jd10                 JUNCTION        5.83          2.400        0.000
  jd12                 JUNCTION        5.85          2.400        0.000
  jd14                 JUNCTION        0.95          2.400        0.000
  jd17                 JUNCTION        5.68          2.200        0.000
  jd18                 JUNCTION        1.08          2.000        0.000
  jd19                 JUNCTION        3.05          2.200        0.000
  jd21                 JUNCTION        5.76          2.200        0.000
  jd22                 JUNCTION        5.72          2.400        0.000
  jd26                 JUNCTION        1.19          2.400        0.000
  jd28                 JUNCTION        5.93          2.400        0.000
  jd31                 JUNCTION        5.65          2.200        0.000
  jd32                 JUNCTION        5.86          2.200        0.000
  jd35                 JUNCTION        6.13          2.400        0.000
  jd36                 JUNCTION        2.63          2.400        0.000
  jd37                 JUNCTION        1.88          2.400        0.000
  jd39                 JUNCTION        5.76          2.000        0.000
  jd40                 JUNCTION        3.00          2.200        0.000
  jd41                 JUNCTION        5.58          1.000        0.000
  jd43                 JUNCTION        2.88          2.200        0.000
  jd44                 JUNCTION        2.92          2.000        0.000
  jd45                 JUNCTION        5.80          2.000        0.000
  jd50                 JUNCTION        5.96          2.200        0.000
  jd51                 JUNCTION        5.56          1.350        0.000
  jd52                 JUNCTION        1.67          1.500        0.000
  jd53                 JUNCTION        2.13          1.800        0.000
  jd55                 JUNCTION        3.08          1.500        0.000
  jd59                 JUNCTION        5.53          1.500        0.000
  jd60                 JUNCTION        5.86          2.400        0.000
  jd64                 JUNCTION        5.54          1.800        0.000
  jd65                 JUNCTION        3.91          2.400        0.000
  jd66                 JUNCTION        5.81          2.200        0.000
  jd79                 JUNCTION        5.89          2.400        0.000
  jd80                 JUNCTION        5.79          2.400        0.000
  jd83                 JUNCTION        6.16          2.400        0.000
  jd84                 JUNCTION        0.67          2.400        0.000
  jd85                 JUNCTION        5.84          2.400        0.000
  jd87                 JUNCTION        5.84          2.400        0.000
  jd93                 JUNCTION        2.24          2.200        0.000
  jd94                 JUNCTION        1.11          2.200        0.000
  jd95                 JUNCTION        0.68          2.200        0.000
  jd96                 JUNCTION        5.89          2.200        0.000
  jd97                 JUNCTION        0.67          2.200        0.000
  jd99                 JUNCTION        5.80          2.400        0.000
  jd106                JUNCTION        5.67          2.000        0.000
  jd108                JUNCTION        5.86          0.682        1.318
  jd110                JUNCTION        5.84          2.000        0.000
  jd114                JUNCTION        5.81          2.000        0.000
  jd117                JUNCTION        5.76          2.200        0.000
  jd122                JUNCTION        5.79          2.200        0.000
  jd123                JUNCTION        5.75          2.200        0.000
  jd124                JUNCTION        6.35          2.400        0.000
  jd125                JUNCTION        3.32          2.200        0.000
  jd126                JUNCTION        6.15          2.400        0.000
  
  
  *********************
  Node Flooding Summary
  *********************
  
  Flooding refers to all water that overflows a node, whether it ponds or not.
  --------------------------------------------------------------------------
                                                             Total   Maximum
                                 Maximum   Time of Max       Flood    Ponded
                        Hours       Rate    Occurrence      Volume     Depth
  Node                 Flooded       CMS   days hr:min    10^6 ltr    Meters
  --------------------------------------------------------------------------
  jd2                     0.74     0.243      0  04:13       0.301     0.000
  jd3                     5.76     2.929      0  05:00      30.848     0.000
  jd4                     3.03     1.113      0  05:00       6.923     0.000
  jd8                     2.94     0.405      0  02:16       1.475     0.000
  jd9                     2.91     0.591      0  02:19       3.285     0.000
  jd10                    5.83     0.894      0  05:00       8.126     0.000
  jd12                    5.85     1.720      0  05:00      15.527     0.000
  jd14                    0.45     0.225      0  04:16       0.039     0.000
  jd17                    3.54     2.525      0  05:00      18.925     0.000
  jd18                    0.70     0.521      0  04:21       0.590     0.000
  jd19                    2.82     0.974      0  05:00       4.760     0.000
  jd21                    5.71     2.729      0  05:00      28.668     0.000
  jd22                    2.86     0.778      0  05:00       3.966     0.000
  jd26                    0.98     0.384      0  05:00       0.942     0.000
  jd28                    5.92     2.624      0  05:00      25.037     0.000
  jd31                    0.01     1.092      0  02:21       0.013     0.000
  jd32                    5.86     3.872      0  05:00      39.938     0.000
  jd35                    6.12     3.255      0  05:00      35.607     0.000
  jd36                    1.71     1.000      0  05:00       3.729     0.000
  jd37                    1.58     0.779      0  05:00       2.628     0.000
  jd39                    5.76     4.054      0  05:00      46.142     0.000
  jd40                    2.92     2.078      0  05:00      14.259     0.000
  jd41                    5.57     5.714      0  05:00      55.930     0.000
  jd43                    2.84     2.598      0  05:00      15.380     0.000
  jd44                    2.72     2.062      0  05:00       9.628     0.000
  jd45                    5.80     3.602      0  05:00      41.767     0.000
  jd50                    5.96     5.955      0  05:00      63.835     0.000
  jd51                    5.56     2.745      0  05:00      23.874     0.000
  jd52                    0.02     1.752      0  04:14       0.052     0.000
  jd53                    0.84     0.471      0  02:38       0.579     0.000
  jd55                    1.55     2.502      0  05:00       9.393     0.000
  jd59                    5.53     1.983      0  05:00      17.004     0.000
  jd60                    5.86     1.518      0  05:00      13.875     0.000
  jd64                    0.02     0.615      0  02:28       0.029     0.000
  jd65                    3.86     5.301      0  05:00      38.568     0.000
  jd66                    5.81     2.431      0  05:00      22.241     0.000
  jd79                    4.48     2.180      0  05:00      19.707     0.000
  jd80                    4.00     2.126      0  05:00      16.620     0.000
  jd83                    6.16     1.780      0  05:00      15.720     0.000
  jd84                    0.01     0.140      0  04:21       0.001     0.000
  jd85                    5.84     0.627      0  05:00       5.721     0.000
  jd87                    5.84     0.757      0  05:00       6.906     0.000
  jd93                    0.69     0.269      0  05:00       0.577     0.000
  jd94                    0.01     0.210      0  04:21       0.002     0.000
  jd95                    0.01     0.042      0  04:23       0.000     0.000
  jd96                    5.89     0.816      0  05:00       7.508     0.000
  jd97                    0.01     0.118      0  04:23       0.002     0.000
  jd99                    5.80     0.437      0  05:00       4.577     0.000
  jd106                   5.67     1.550      0  05:00      13.721     0.000
  jd110                   5.84     0.769      0  05:00       7.073     0.000
  jd114                   5.78     3.945      0  05:00      43.189     0.000
  jd117                   0.01     0.827      0  02:14       0.014     0.000
  jd122                   5.79     4.632      0  05:00      45.868     0.000
  jd123                   5.75     3.292      0  05:00      35.144     0.000
  jd124                   6.35     2.949      0  05:00      33.820     0.000
  jd125                   2.86     1.114      0  05:00       6.198     0.000
  jd126                   6.15     3.512      0  05:00      33.135     0.000
  
  
  ***********************
  Outfall Loading Summary
  ***********************
  
  -----------------------------------------------------------
                         Flow       Avg       Max       Total
                         Freq      Flow      Flow      Volume
  Outfall Node           Pcnt       CMS       CMS    10^6 ltr
  -----------------------------------------------------------
  psk1                  96.82     0.336     0.676       6.200
  psk2                  96.80     0.951     1.961      17.446
  psk3                  96.85     1.458     3.076      26.817
  psk4                   0.00     0.000     0.000       0.000
  psk5                  96.80     0.335     0.651       6.216
  psk6                  96.77     0.275     0.544       5.105
  psk7                  96.82     1.392     2.284      26.765
  psk8                   0.00     0.000     0.000       0.000
  -----------------------------------------------------------
  System                72.61     4.747     0.000      88.549
  
  
  ********************
  Link Flow Summary
  ********************
  
  -----------------------------------------------------------------------------
                                 Maximum  Time of Max   Maximum    Max/    Max/
                                  |Flow|   Occurrence   |Veloc|    Full    Full
  Link                 Type          CMS  days hr:min     m/sec    Flow   Depth
  -----------------------------------------------------------------------------
  GQ1                  CONDUIT     0.355     0  04:38      1.97    0.93    0.66
  GQ2                  CONDUIT     1.319     0  05:00      2.76    0.63    0.58
  GQ3                  CONDUIT     0.676     0  05:00      6.35    0.03    0.11
  GQ4                  CONDUIT     0.510     0  04:45      1.80    1.00    1.00
  GQ5                  CONDUIT     1.208     0  04:36      2.40    1.00    1.00
  GQ6                  CONDUIT     0.352     0  05:00      1.23    0.16    0.63
  GQ7                  CONDUIT     1.675     0  03:08      3.66    1.00    1.00
  GQ8                  CONDUIT     0.740     0  05:00      1.69    0.71    0.81
  GQ9                  CONDUIT     2.009     0  05:00      4.60    0.71    0.81
  GQ10                 CONDUIT     1.134     0  06:12      4.10    1.04    1.00
  GQ11                 CONDUIT     0.217     0  05:00      2.01    0.23    0.47
  GQ12                 CONDUIT     0.259     0  05:00      1.26    0.28    0.68
  GQ13                 CONDUIT     0.165     0  05:00      0.58    0.08    0.59
  GQ14                 CONDUIT     0.085     0  05:00      1.07    0.12    0.22
  GQ15                 CONDUIT     0.199     0  05:00      4.35    0.80    0.62
  GQ16                 CONDUIT     1.754     0  05:00      4.08    0.85    0.55
  GQ17                 CONDUIT     0.407     0  05:00      1.85    0.13    0.45
  GQ18                 CONDUIT     1.082     0  05:00      2.50    4.88    0.83
  GQ19                 CONDUIT     0.547     0  05:00      2.24    0.06    0.35
  GQ20                 CONDUIT     0.120     0  05:00      0.48    0.06    0.59
  GQ21                 CONDUIT     0.441     0  05:00      1.45    0.14    0.63
  GQ22                 CONDUIT     0.447     0  05:00      1.77    0.14    0.36
  GQ23                 CONDUIT     0.915     0  05:00      2.28    0.45    0.51
  GQ24                 CONDUIT     1.420     0  05:00      3.13    0.70    0.85
  GQ25                 CONDUIT     0.830     0  05:00      3.92    0.93    0.70
  GQ26                 CONDUIT     0.575     0  05:00      2.65    0.67    0.76
  GQ27                 CONDUIT     0.832     0  04:50      3.00    0.83    0.96
  GQ28                 CONDUIT     0.282     0  05:00      0.74    0.30    0.71
  GQ29                 CONDUIT     1.185     0  05:00      2.36    0.55    1.00
  GQ30                 CONDUIT     0.824     0  03:01      2.91    1.00    1.00
  GQ31                 CONDUIT     0.557     0  05:00      2.07    0.74    0.90
  GQ32                 CONDUIT     0.682     0  05:00      2.97    1.10    0.85
  GQ33                 CONDUIT     1.434     0  04:24      5.07    1.00    1.00
  GQ34                 CONDUIT     0.428     0  05:00      1.75    0.67    0.81
  GQ35                 CONDUIT     0.595     0  02:35      2.18    1.10    1.00
  GQ36                 CONDUIT     0.975     0  04:06      3.45    1.21    1.00
  GQ37                 CONDUIT     0.422     0  05:00      1.64    0.60    0.85
  GQ38                 CONDUIT     0.190     0  05:00      0.89    0.27    0.70
  GQ39                 CONDUIT     0.782     0  04:41      2.76    1.00    1.00
  GQ40                 CONDUIT     0.583     0  05:04      2.49    0.72    0.85
  GQ41                 CONDUIT     1.257     0  05:00      1.65    0.58    0.93
  GQ42                 CONDUIT     1.359     0  04:45      2.70    1.00    1.00
  GQ43                 CONDUIT     2.311     0  02:35      4.70    1.03    1.00
  GQ44                 CONDUIT     0.946     0  02:56      1.88    1.00    1.00
  GQ45                 CONDUIT     0.906     0  05:00      2.37    0.37    0.71
  GQ46                 CONDUIT     1.068     0  03:57      2.21    1.00    1.00
  GQ47                 CONDUIT     0.188     0  05:00      0.98    0.18    0.64
  GQ48                 CONDUIT     0.187     0  05:00      0.97    0.18    0.64
  GQ49                 CONDUIT     0.749     0  05:00      3.65    0.28    0.68
  GQ50                 CONDUIT     0.215     0  05:00      1.06    0.28    0.68
  GQ51                 CONDUIT     0.986     0  05:00      3.51    1.50    0.98
  GQ52                 CONDUIT     0.625     0  05:00      1.37    0.83    0.85
  GQ53                 CONDUIT     2.225     0  02:59      2.83    1.00    1.00
  GQ54                 CONDUIT     0.459     0  05:00      2.11    0.39    0.72
  GQ55                 CONDUIT     0.343     0  05:00      1.72    0.23    0.66
  GQ56                 CONDUIT     2.006     0  02:26      4.28    1.10    1.00
  GQ57                 CONDUIT     0.663     0  05:00      1.69    0.43    0.73
  GQ58                 CONDUIT     1.382     0  05:00      3.51    0.43    0.73
  GQ59                 CONDUIT     1.203     0  04:39      2.39    1.00    1.00
  GQ60                 CONDUIT     2.048     0  04:14      1.29    0.49    1.00
  GQ61                 CONDUIT     0.295     0  05:00      0.33    0.04    0.57
  GQ62                 CONDUIT     0.616     0  05:00      0.47    0.06    0.58
  GQ63                 CONDUIT     1.408     0  05:00      0.79    0.04    0.57
  GQ64                 CONDUIT     0.100     0  05:00      1.43    0.08    0.31
  GQ65                 CONDUIT     0.043     0  05:00      0.35    0.08    0.45
  GQ66                 CONDUIT     0.175     0  05:00      0.71    0.05    0.58
  GQ67                 CONDUIT     0.922     0  05:00      0.82    0.64    1.00
  GQ68                 CONDUIT     0.918     0  05:00      1.60    0.29    0.68
  GQ69                 CONDUIT     1.593     0  05:00      3.84    0.57    0.77
  GQ70                 CONDUIT     0.544     0  05:00      8.23    0.08    0.19
  GQ71                 CONDUIT     0.651     0  05:00      5.96    0.16    0.27
  GQ72                 CONDUIT     2.284     0  05:00      5.44    0.55    0.53
  GQ73                 CONDUIT     1.961     0  05:00     13.43    0.13    0.24
  GQ74                 CONDUIT     0.359     0  05:00      1.39    0.07    0.38
  GQ75                 CONDUIT     0.441     0  05:00      0.86    0.13    0.62
  GQ76                 CONDUIT     3.076     0  05:00      6.30    0.67    0.60
  GQ77                 CONDUIT     0.000     0  00:00      0.00    0.00    0.29
  GQ78                 CONDUIT     0.916     0  04:30      3.24    1.00    1.00
  GQ79                 CONDUIT     0.244     0  05:00      1.08    0.53    0.78
  GQ80                 CONDUIT     0.608     0  04:36      2.15    1.00    1.00
  GQ81                 CONDUIT     0.605     0  02:17      2.21    3.84    1.00
  GQ82                 CONDUIT     0.613     0  05:00      2.78    0.42    0.73
  GQ83                 CONDUIT     0.661     0  05:00      3.05    0.42    0.72
  GQ84                 CONDUIT     1.304     0  04:19      4.72    1.03    1.00
  GQ85                 CONDUIT     0.453     0  05:00      1.60    0.78    1.00
  GQ86                 CONDUIT     0.180     0  05:00      1.03    0.08    0.59
  GQ87                 CONDUIT     0.064     0  05:00      0.36    0.09    0.60
  GQ88                 CONDUIT     0.443     0  05:00      2.04    0.39    0.72
  GQ89                 CONDUIT     0.366     0  05:00      1.62    0.48    0.74
  GQ90                 CONDUIT     0.373     0  05:00      1.73    0.38    0.71
  GQ91                 CONDUIT     0.314     0  05:00      1.45    0.38    0.71
  GQ92                 CONDUIT     0.742     0  05:00      1.80    1.07    1.00
  GQ93                 CONDUIT     0.785     0  05:00      1.69    0.67    1.00
  GQ94                 CONDUIT     1.200     0  05:02      2.39    1.42    1.00
  GQ95                 CONDUIT     0.204     0  05:00      0.68    0.05    0.58
  GQ96                 CONDUIT     0.660     0  05:00      1.40    1.13    1.00
  GQ97                 CONDUIT     0.369     0  05:00      2.05    0.67    0.61
  GQ98                 CONDUIT     0.260     0  05:00      1.06    0.37    0.81
  GQ99                 CONDUIT     0.669     0  05:00      0.65    0.04    0.57
  GQ100                CONDUIT     0.481     0  05:00      3.00    0.83    0.56
  GQ101                CONDUIT     0.331     0  05:00      1.65    0.25    0.67
  GQ102                CONDUIT     1.376     0  05:00      3.52    0.42    0.73
  GQ103                CONDUIT     0.516     0  05:00      1.94    0.79    0.89
  GQ104                CONDUIT     1.160     0  05:00      4.52    0.84    0.85
  GQ105                CONDUIT     1.064     0  02:15      2.13    3.38    1.00
  GQ106                CONDUIT     0.364     0  05:00      1.70    0.36    0.71
  GQ107                CONDUIT     1.114     0  04:22      3.94    1.00    1.00
  GQ108                CONDUIT     0.829     0  04:37      1.65    1.00    1.00
  GQ109                CONDUIT     0.271     0  05:00      1.41    0.37    0.71
  GQ110                CONDUIT     0.447     0  05:00      0.93    0.07    0.59
  GQ111                CONDUIT     0.402     0  05:00      1.87    0.37    0.71
  GQ112                CONDUIT     1.230     0  05:00      3.15    0.22    0.38
  GQ113                CONDUIT     0.680     0  05:00      4.06    0.51    0.57
  GQ114                CONDUIT     0.407     0  05:00      0.71    0.17    0.68
  GQ115                CONDUIT     0.176     0  05:00      1.05    0.02    0.21
  GQ116                CONDUIT     0.253     0  05:00      0.55    0.04    0.56
  GQ117                CONDUIT     0.897     0  05:00      4.58    0.56    0.41
  GQ118                CONDUIT     0.339     0  05:00      2.11    0.12    0.43
  GQ119                CONDUIT     2.302     0  04:23      4.58    1.00    1.00
  GQ120                CONDUIT     0.000     0  00:00      0.00    0.00    0.50
  GQ121                CONDUIT     1.234     0  05:00      2.45    0.87    1.00
  GQ122                CONDUIT     0.512     0  05:00      1.86    0.09    0.60
  GQ123                CONDUIT     0.345     0  05:00      1.81    0.17    0.64
  GQ124                CONDUIT     0.214     0  05:00      1.10    0.09    0.43
  GQ125                CONDUIT     0.431     0  05:00      1.88    0.49    0.76
  GQ126                CONDUIT     0.533     0  05:00      2.33    0.51    0.75
  GQ127                CONDUIT     0.825     0  05:15      1.70    1.06    1.00
  GQ128                CONDUIT     1.807     0  05:00      2.93    0.39    0.72
  GQ129                CONDUIT     1.313     0  04:43      2.61    1.00    1.00
  GQ130                CONDUIT     1.073     0  02:33      3.79    1.00    1.00
  GQ131                CONDUIT     0.862     0  04:42      3.05    1.00    1.00
  
  
  ***************************
  Flow Classification Summary
  ***************************
  
  -------------------------------------------------------------------------------------
                      Adjusted    ---------- Fraction of Time in Flow Class ---------- 
                       /Actual         Up    Down  Sub   Sup   Up    Down  Norm  Inlet 
  Conduit               Length    Dry  Dry   Dry   Crit  Crit  Crit  Crit  Ltd   Ctrl  
  -------------------------------------------------------------------------------------
  GQ1                     1.00   0.03  0.00  0.00  0.11  0.86  0.00  0.00  0.00  0.00
  GQ2                     1.00   0.03  0.00  0.00  0.05  0.92  0.00  0.00  0.86  0.00
  GQ3                     1.00   0.03  0.00  0.00  0.00  0.97  0.00  0.00  0.17  0.00
  GQ4                     1.00   0.03  0.00  0.00  0.97  0.00  0.00  0.00  0.32  0.00
  GQ5                     1.00   0.03  0.00  0.00  0.97  0.00  0.00  0.00  0.49  0.00
  GQ6                     1.00   0.03  0.00  0.00  0.96  0.01  0.00  0.00  0.87  0.00
  GQ7                     1.00   0.03  0.00  0.00  0.62  0.35  0.00  0.00  0.10  0.00
  GQ8                     1.00   0.03  0.00  0.00  0.97  0.00  0.00  0.00  0.84  0.00
  GQ9                     1.00   0.03  0.00  0.00  0.38  0.59  0.00  0.00  0.87  0.00
  GQ10                    1.00   0.03  0.00  0.00  0.77  0.20  0.00  0.00  0.37  0.00
  GQ11                    1.00   0.03  0.00  0.00  0.27  0.69  0.00  0.00  0.87  0.00
  GQ12                    1.00   0.03  0.00  0.00  0.96  0.01  0.00  0.00  0.87  0.00
  GQ13                    1.00   0.03  0.00  0.00  0.97  0.00  0.00  0.00  0.87  0.00
  GQ14                    1.00   0.03  0.00  0.00  0.96  0.01  0.00  0.00  0.00  0.00
  GQ15                    1.00   0.03  0.00  0.00  0.00  0.97  0.00  0.00  0.02  0.00
  GQ16                    1.00   0.03  0.00  0.00  0.00  0.96  0.00  0.00  0.00  0.00
  GQ17                    1.00   0.03  0.00  0.00  0.56  0.41  0.00  0.00  0.87  0.00
  GQ18                    1.00   0.03  0.00  0.00  0.81  0.15  0.00  0.00  0.08  0.00
  GQ19                    1.00   0.03  0.00  0.00  0.32  0.65  0.00  0.00  0.87  0.00
  GQ20                    1.00   0.03  0.00  0.00  0.97  0.00  0.00  0.00  0.87  0.00
  GQ21                    1.00   0.03  0.00  0.00  0.64  0.33  0.00  0.00  0.87  0.00
  GQ22                    1.00   0.03  0.00  0.00  0.00  0.97  0.00  0.00  0.87  0.00
  GQ23                    1.00   0.03  0.00  0.00  0.01  0.96  0.00  0.00  0.37  0.00
  GQ24                    1.00   0.03  0.00  0.00  0.68  0.29  0.00  0.00  0.68  0.00
  GQ25                    1.00   0.03  0.00  0.00  0.00  0.97  0.00  0.00  0.01  0.00
  GQ26                    1.00   0.03  0.00  0.00  0.00  0.97  0.00  0.00  0.80  0.00
  GQ27                    1.00   0.03  0.00  0.00  0.54  0.43  0.00  0.00  0.51  0.00
  GQ28                    1.00   0.03  0.00  0.00  0.97  0.00  0.00  0.00  0.65  0.00
  GQ29                    1.00   0.03  0.00  0.00  0.97  0.00  0.00  0.00  0.15  0.00
  GQ30                    1.00   0.03  0.00  0.00  0.95  0.02  0.00  0.00  0.12  0.00
  GQ31                    1.00   0.03  0.00  0.00  0.97  0.00  0.00  0.00  0.64  0.00
  GQ32                    1.00   0.03  0.00  0.00  0.01  0.96  0.00  0.00  0.02  0.00
  GQ33                    1.00   0.03  0.00  0.00  0.78  0.19  0.00  0.00  0.49  0.00
  GQ34                    1.00   0.03  0.00  0.00  0.95  0.02  0.00  0.00  0.80  0.00
  GQ35                    1.00   0.03  0.00  0.00  0.57  0.40  0.00  0.00  0.41  0.00
  GQ36                    1.00   0.03  0.00  0.00  0.41  0.56  0.00  0.00  0.54  0.00
  GQ37                    1.00   0.03  0.00  0.00  0.97  0.00  0.00  0.00  0.53  0.00
  GQ38                    1.00   0.03  0.00  0.00  0.97  0.00  0.00  0.00  0.65  0.00
  GQ39                    1.00   0.03  0.00  0.00  0.94  0.03  0.00  0.00  0.58  0.00
  GQ40                    1.00   0.03  0.00  0.00  0.26  0.70  0.00  0.00  0.74  0.00
  GQ41                    1.00   0.03  0.00  0.00  0.97  0.00  0.00  0.00  0.49  0.00
  GQ42                    1.00   0.03  0.00  0.00  0.97  0.00  0.00  0.00  0.45  0.00
  GQ43                    1.00   0.03  0.00  0.00  0.50  0.47  0.00  0.00  0.52  0.00
  GQ44                    1.00   0.03  0.00  0.00  0.97  0.00  0.00  0.00  0.34  0.00
  GQ45                    1.00   0.03  0.00  0.00  0.55  0.42  0.00  0.00  0.87  0.00
  GQ46                    1.00   0.03  0.00  0.00  0.75  0.22  0.00  0.00  0.35  0.00
  GQ47                    1.00   0.03  0.00  0.00  0.97  0.00  0.00  0.00  0.87  0.00
  GQ48                    1.00   0.03  0.00  0.00  0.97  0.00  0.00  0.00  0.87  0.00
  GQ49                    1.00   0.03  0.00  0.00  0.39  0.58  0.00  0.00  0.87  0.00
  GQ50                    1.00   0.03  0.00  0.00  0.97  0.00  0.00  0.00  0.87  0.00
  GQ51                    1.00   0.03  0.00  0.00  0.14  0.82  0.00  0.00  0.47  0.00
  GQ52                    1.00   0.03  0.00  0.00  0.97  0.00  0.00  0.00  0.77  0.00
  GQ53                    1.00   0.03  0.00  0.00  0.97  0.00  0.00  0.00  0.46  0.00
  GQ54                    1.00   0.03  0.00  0.00  0.81  0.16  0.00  0.00  0.87  0.00
  GQ55                    1.00   0.03  0.00  0.00  0.96  0.01  0.00  0.00  0.87  0.00
  GQ56                    1.00   0.03  0.00  0.00  0.57  0.39  0.00  0.00  0.36  0.00
  GQ57                    1.00   0.03  0.00  0.00  0.97  0.00  0.00  0.00  0.87  0.00
  GQ58                    1.00   0.03  0.00  0.00  0.53  0.43  0.00  0.00  0.87  0.00
  GQ59                    1.00   0.03  0.00  0.00  0.97  0.00  0.00  0.00  0.46  0.00
  GQ60                    1.00   0.03  0.00  0.00  0.97  0.00  0.00  0.00  0.17  0.00
  GQ61                    1.00   0.03  0.00  0.00  0.97  0.00  0.00  0.00  0.87  0.00
  GQ62                    1.00   0.03  0.00  0.00  0.97  0.00  0.00  0.00  0.87  0.00
  GQ63                    1.00   0.03  0.00  0.00  0.95  0.02  0.00  0.00  0.87  0.00
  GQ64                    1.00   0.03  0.00  0.00  0.20  0.77  0.00  0.00  0.87  0.00
  GQ65                    1.00   0.03  0.00  0.00  0.97  0.00  0.00  0.00  0.87  0.00
  GQ66                    1.00   0.03  0.00  0.00  0.96  0.01  0.00  0.00  0.87  0.00
  GQ67                    1.00   0.03  0.00  0.00  0.97  0.00  0.00  0.00  0.10  0.00
  GQ68                    1.00   0.03  0.00  0.00  0.97  0.00  0.00  0.00  0.87  0.00
  GQ69                    1.00   0.03  0.00  0.00  0.42  0.55  0.00  0.00  0.87  0.00
  GQ70                    1.00   0.03  0.00  0.00  0.00  0.97  0.00  0.00  0.01  0.00
  GQ71                    1.00   0.03  0.00  0.00  0.00  0.97  0.00  0.00  0.06  0.00
  GQ72                    1.00   0.03  0.00  0.00  0.00  0.97  0.00  0.00  0.30  0.00
  GQ73                    1.00   0.03  0.00  0.00  0.00  0.97  0.00  0.00  0.03  0.00
  GQ74                    1.00   0.03  0.00  0.00  0.89  0.08  0.00  0.00  0.87  0.00
  GQ75                    1.00   0.03  0.00  0.00  0.97  0.00  0.00  0.00  0.87  0.00
  GQ76                    1.00   0.03  0.00  0.00  0.00  0.97  0.00  0.00  0.30  0.00
  GQ77                    1.00   0.03  0.97  0.00  0.00  0.00  0.00  0.00  0.00  0.00
  GQ78                    1.00   0.03  0.00  0.00  0.87  0.10  0.00  0.00  0.48  0.00
  GQ79                    1.00   0.03  0.00  0.00  0.97  0.00  0.00  0.00  0.14  0.00
  GQ80                    1.00   0.03  0.00  0.00  0.97  0.00  0.00  0.00  0.40  0.00
  GQ81                    1.00   0.03  0.00  0.00  0.97  0.00  0.00  0.00  0.00  0.00
  GQ82                    1.00   0.03  0.00  0.00  0.57  0.40  0.00  0.00  0.87  0.00
  GQ83                    1.00   0.03  0.00  0.00  0.00  0.97  0.00  0.00  0.87  0.00
  GQ84                    1.00   0.03  0.00  0.00  0.19  0.78  0.00  0.00  0.77  0.00
  GQ85                    1.00   0.03  0.00  0.00  0.97  0.00  0.00  0.00  0.45  0.00
  GQ86                    1.00   0.03  0.00  0.00  0.96  0.01  0.00  0.00  0.87  0.00
  GQ87                    1.00   0.03  0.00  0.00  0.97  0.00  0.00  0.00  0.87  0.00
  GQ88                    1.00   0.03  0.00  0.00  0.84  0.13  0.00  0.00  0.87  0.00
  GQ89                    1.00   0.03  0.00  0.00  0.96  0.01  0.00  0.00  0.87  0.00
  GQ90                    1.00   0.03  0.00  0.00  0.94  0.03  0.00  0.00  0.87  0.00
  GQ91                    1.00   0.03  0.00  0.00  0.96  0.01  0.00  0.00  0.87  0.00
  GQ92                    1.00   0.03  0.00  0.00  0.91  0.06  0.00  0.00  0.06  0.00
  GQ93                    1.00   0.03  0.00  0.00  0.97  0.00  0.00  0.00  0.64  0.00
  GQ94                    1.00   0.03  0.00  0.00  0.64  0.33  0.00  0.00  0.06  0.00
  GQ95                    1.00   0.03  0.00  0.00  0.97  0.00  0.00  0.00  0.87  0.00
  GQ96                    1.00   0.03  0.00  0.00  0.97  0.00  0.00  0.00  0.36  0.00
  GQ97                    1.00   0.03  0.00  0.00  0.00  0.97  0.00  0.00  0.48  0.00
  GQ98                    1.00   0.03  0.00  0.00  0.97  0.00  0.00  0.00  0.49  0.00
  GQ99                    1.00   0.03  0.00  0.00  0.96  0.01  0.00  0.00  0.87  0.00
  GQ100                   1.00   0.03  0.00  0.00  0.00  0.96  0.00  0.00  0.00  0.00
  GQ101                   1.00   0.03  0.00  0.00  0.96  0.01  0.00  0.00  0.87  0.00
  GQ102                   1.00   0.03  0.00  0.00  0.55  0.42  0.00  0.00  0.87  0.00
  GQ103                   1.00   0.03  0.00  0.00  0.97  0.00  0.00  0.00  0.66  0.00
  GQ104                   1.00   0.03  0.00  0.00  0.35  0.62  0.00  0.00  0.87  0.00
  GQ105                   1.00   0.03  0.00  0.00  0.97  0.00  0.00  0.00  0.12  0.00
  GQ106                   1.00   0.03  0.00  0.00  0.96  0.01  0.00  0.00  0.87  0.00
  GQ107                   1.00   0.03  0.00  0.00  0.60  0.37  0.00  0.00  0.62  0.00
  GQ108                   1.00   0.03  0.00  0.00  0.97  0.00  0.00  0.00  0.16  0.00
  GQ109                   1.00   0.03  0.00  0.00  0.90  0.06  0.00  0.00  0.87  0.00
  GQ110                   1.00   0.03  0.00  0.00  0.96  0.01  0.00  0.00  0.87  0.00
  GQ111                   1.00   0.03  0.00  0.00  0.96  0.01  0.00  0.00  0.83  0.00
  GQ112                   1.00   0.03  0.00  0.00  0.00  0.97  0.00  0.00  0.84  0.00
  GQ113                   1.00   0.03  0.00  0.00  0.00  0.97  0.00  0.00  0.85  0.00
  GQ114                   1.00   0.03  0.00  0.00  0.97  0.00  0.00  0.00  0.14  0.00
  GQ115                   1.00   0.03  0.00  0.00  0.94  0.03  0.00  0.00  0.87  0.00
  GQ116                   1.00   0.03  0.00  0.00  0.97  0.00  0.00  0.00  0.87  0.00
  GQ117                   1.00   0.03  0.00  0.00  0.00  0.97  0.00  0.00  0.00  0.00
  GQ118                   1.00   0.03  0.00  0.00  0.24  0.73  0.00  0.00  0.87  0.00
  GQ119                   1.00   0.03  0.00  0.00  0.89  0.08  0.00  0.00  0.49  0.00
  GQ120                   1.00   0.03  0.07  0.00  0.90  0.00  0.00  0.00  0.00  0.00
  GQ121                   1.00   0.03  0.00  0.00  0.96  0.01  0.00  0.00  0.15  0.00
  GQ122                   1.00   0.03  0.00  0.00  0.91  0.06  0.00  0.00  0.87  0.00
  GQ123                   1.00   0.03  0.00  0.00  0.79  0.18  0.00  0.00  0.87  0.00
  GQ124                   1.00   0.03  0.00  0.00  0.95  0.02  0.00  0.00  0.87  0.00
  GQ125                   1.00   0.03  0.00  0.00  0.96  0.01  0.00  0.00  0.78  0.00
  GQ126                   1.00   0.03  0.00  0.00  0.78  0.19  0.00  0.00  0.87  0.00
  GQ127                   1.00   0.03  0.00  0.00  0.97  0.00  0.00  0.00  0.41  0.00
  GQ128                   1.00   0.03  0.00  0.00  0.58  0.39  0.00  0.00  0.78  0.00
  GQ129                   1.00   0.03  0.00  0.00  0.97  0.00  0.00  0.00  0.37  0.00
  GQ130                   1.00   0.03  0.00  0.00  0.89  0.08  0.00  0.00  0.37  0.00
  GQ131                   1.00   0.03  0.00  0.00  0.71  0.26  0.00  0.00  0.52  0.00
  
  
  *************************
  Conduit Surcharge Summary
  *************************
  
  ----------------------------------------------------------------------------
                                                           Hours        Hours 
                         --------- Hours Full --------   Above Full   Capacity
  Conduit                Both Ends  Upstream  Dnstream   Normal Flow   Limited
  ----------------------------------------------------------------------------
  GQ4                         3.84      3.84      5.80      0.01         0.01
  GQ5                         1.58      1.58      5.76      0.01         0.01
  GQ6                         0.01      0.01      1.58      0.01         0.01
  GQ7                         3.07      3.07      3.32      0.01         0.01
  GQ8                         0.01      0.01      3.07      0.01         0.01
  GQ9                         0.01      0.01      5.96      0.01         0.01
  GQ10                        3.91      3.91      6.07      0.06         0.01
  GQ12                        0.01      0.01      5.71      0.01         0.01
  GQ13                        0.01      0.01      3.54      0.01         0.01
  GQ18                        0.01      0.01      4.48      5.74         0.01
  GQ20                        0.01      0.01      1.08      0.01         0.01
  GQ21                        0.01      0.01      1.08      0.01         0.01
  GQ24                        0.01      0.01      5.86      0.01         0.01
  GQ27                        0.01      0.01      5.72      0.01         0.01
  GQ28                        0.01      0.01      5.76      0.01         0.01
  GQ29                        5.65      5.65      5.76      0.01         0.01
  GQ30                        5.72      5.72      5.81      0.01         0.01
  GQ31                        0.01      0.01      6.13      0.01         0.01
  GQ32                        0.01      2.63      0.01      1.84         0.01
  GQ33                        2.63      2.63      6.13      0.01         0.01
  GQ34                        0.01      0.01      2.63      0.01         0.01
  GQ35                        1.88      1.88      2.63      0.14         0.01
  GQ36                        1.81      1.89      1.87      2.12         1.80
  GQ37                        0.01      0.01      5.93      0.01         0.01
  GQ38                        0.01      0.01      5.93      0.01         0.01
  GQ39                        1.19      1.19      5.71      0.01         0.01
  GQ40                        0.01      0.01      1.19      0.01         0.01
  GQ41                        0.01      0.01      5.76      0.01         0.01
  GQ42                        3.00      3.00      5.79      0.01         0.01
  GQ43                        2.42      2.42      3.00      0.18         0.01
  GQ44                        3.74      3.74      4.48      0.01         0.01
  GQ45                        0.01      0.01      3.05      0.01         0.01
  GQ46                        3.05      3.05      3.74      0.01         0.01
  GQ47                        0.01      0.01      5.83      0.01         0.01
  GQ48                        0.01      0.01      5.85      0.01         0.01
  GQ49                        0.01      0.01      5.85      0.01         0.01
  GQ50                        0.01      0.01      0.95      0.01         0.01
  GQ51                        0.01      0.95      0.01      1.36         0.01
  GQ52                        0.01      0.01      5.65      0.01         0.01
  GQ53                        2.92      2.92      5.80      0.01         0.01
  GQ54                        0.01      0.01      5.86      0.01         0.01
  GQ55                        0.01      0.01      5.86      0.01         0.01
  GQ56                        2.83      2.88      3.07      0.24         0.07
  GQ57                        0.01      0.01      2.88      0.01         0.01
  GQ58                        0.01      0.01      5.73      0.01         0.01
  GQ59                        3.00      3.00      5.73      0.01         0.01
  GQ60                        1.66      1.66      3.08      0.01         0.01
  GQ61                        0.01      0.01      5.53      0.01         0.01
  GQ62                        0.01      0.01      5.56      0.01         0.01
  GQ63                        0.01      0.01      5.58      0.01         0.01
  GQ66                        0.01      0.01      5.61      0.01         0.01
  GQ67                        5.54      5.54      5.57      0.01         0.01
  GQ68                        0.01      0.01      5.67      0.01         0.01
  GQ69                        0.01      0.01      5.81      0.01         0.01
  GQ75                        0.01      0.01      5.67      0.01         0.01
  GQ78                        2.29      2.29      5.89      0.01         0.01
  GQ79                        0.01      0.01      5.89      0.01         0.01
  GQ80                        2.29      2.29      5.79      0.01         0.01
  GQ81                        5.71      5.79      5.71      4.67         1.00
  GQ82                        0.01      0.01      5.71      0.01         0.01
  GQ84                        0.67      0.67      3.06      0.13         0.01
  GQ85                        0.67      0.67      6.16      0.01         0.01
  GQ86                        0.01      0.01      5.84      0.01         0.01
  GQ87                        0.01      0.01      5.84      0.01         0.01
  GQ88                        0.01      0.01      5.84      0.01         0.01
  GQ89                        0.01      0.01      5.72      0.01         0.01
  GQ90                        0.01      0.01      5.66      0.01         0.01
  GQ91                        0.01      0.01      5.75      0.01         0.01
  GQ92                        0.68      0.68      1.10      0.62         0.61
  GQ93                        1.10      1.10      2.24      0.01         0.01
  GQ94                        2.23      2.24      2.42      2.16         1.92
  GQ95                        0.01      0.01      5.89      0.01         0.01
  GQ96                        0.67      0.67      0.68      0.77         0.62
  GQ98                        0.01      0.01      5.80      0.01         0.01
  GQ99                        0.01      0.01      5.58      0.01         0.01
  GQ101                       0.01      0.01      5.75      0.01         0.01
  GQ102                       0.01      0.01      5.79      0.01         0.01
  GQ103                       0.01      0.01      5.83      0.01         0.01
  GQ104                       0.01      0.01      5.83      0.01         0.01
  GQ105                       5.75      5.75      5.79      5.34         0.01
  GQ106                       0.01      0.01      5.76      0.01         0.01
  GQ107                       1.19      1.19      5.76      0.01         0.01
  GQ108                       5.68      5.68      5.75      0.01         0.01
  GQ109                       0.01      0.01      1.19      0.01         0.01
  GQ110                       0.01      0.01      5.67      0.01         0.01
  GQ111                       0.01      0.01      5.75      0.01         0.01
  GQ114                       0.01      0.01      5.86      0.01         0.01
  GQ116                       0.01      0.01      5.84      0.01         0.01
  GQ119                       2.84      2.84      5.85      0.01         0.01
  GQ120                       0.01      0.01      5.81      0.01         0.01
  GQ121                       5.76      5.76      5.85      0.01         0.01
  GQ122                       0.01      0.01      5.76      0.01         0.01
  GQ123                       0.01      0.01      5.77      0.01         0.01
  GQ125                       0.01      0.01      5.75      0.01         0.01
  GQ126                       0.01      0.01      5.75      0.01         0.01
  GQ127                       2.42      2.42      2.84      0.13         0.08
  GQ128                       0.01      0.01      2.13      0.01         0.01
  GQ129                       3.32      3.32      5.86      0.01         0.01
  GQ130                       3.51      3.51      6.35      0.01         0.01
  GQ131                       0.95      0.95      6.15      0.01         0.01
  

  Analysis begun on:  Wed Mar 29 19:38:14 2023
  Analysis ended on:  Wed Mar 29 19:38:29 2023
  Total elapsed time: 00:00:15