
  OWA STORM WATER MANAGEMENT MODEL - VERSION v5.1.14 (OWA 2022-07-31)
  --------------------------------------------------------------

  INP file created by DSDAConvertToSwmmTools 
  version 0.0.1 EcoVista 
  Title/Notes: 
  
  
  *********************************************************
  NOTE: The summary statistics displayed in this report are
  based on results found at every computational time step,  
  not just on results from each reporting time step.
  *********************************************************
  
  ****************
  Analysis Options
  ****************
  Flow Units ............... CMS
  Process Models:
    Rainfall/Runoff ........ YES
    RDII ................... NO
    Snowmelt ............... NO
    Groundwater ............ NO
    Flow Routing ........... YES
    Ponding Allowed ........ NO
    Water Quality .......... NO
  Infiltration Method ...... GREEN_AMPT
  Flow Routing Method ...... DYNWAVE
  Surcharge Method ......... EXTRAN
  Starting Date ............ 07/15/2020 00:00:00
  Ending Date .............. 07/15/2020 11:00:00
  Antecedent Dry Days ...... 0.0
  Report Time Step ......... 00:30:00
  Wet Time Step ............ 00:05:00
  Dry Time Step ............ 01:00:00
  Routing Time Step ........ 30.00 sec
  Variable Time Step ....... YES
  Maximum Trials ........... 8
  Number of Threads ........ 1
  Head Tolerance ........... 0.001500 m
  
  
  **************************        Volume         Depth
  Runoff Quantity Continuity     hectare-m            mm
  **************************     ---------       -------
  Total Precipitation ......        41.164        10.300
  Evaporation Loss .........         3.579         0.896
  Infiltration Loss ........        11.001         2.753
  Surface Runoff ...........        18.898         4.729
  Final Storage ............         7.779         1.946
  Continuity Error (%) .....        -0.227
  
  
  **************************        Volume        Volume
  Flow Routing Continuity        hectare-m      10^6 ltr
  **************************     ---------     ---------
  Dry Weather Inflow .......         0.000         0.000
  Wet Weather Inflow .......        18.804       188.042
  Groundwater Inflow .......         0.000         0.000
  RDII Inflow ..............         0.000         0.000
  External Inflow ..........         0.000         0.000
  External Outflow .........         1.913        19.135
  Flooding Loss ............        15.325       153.250
  Evaporation Loss .........         0.000         0.000
  Exfiltration Loss ........         0.000         0.000
  Initial Stored Volume ....         0.000         0.000
  Final Stored Volume ......         1.374        13.737
  Continuity Error (%) .....         1.021
  
  
  *************************
  Highest Continuity Errors
  *************************
  Node jd51 (28.56%)
  Node jd59 (25.01%)
  Node jd64 (22.94%)
  Node jd55 (20.25%)
  Node jd31 (20.02%)
  
  
  ***************************
  Time-Step Critical Elements
  ***************************
  Link GQ73 (85.68%)
  
  
  ********************************
  Highest Flow Instability Indexes
  ********************************
  Link GQ29 (13)
  Link GQ3 (13)
  Link GQ67 (12)
  Link GQ121 (7)
  Link GQ30 (6)
  
  
  *************************
  Routing Time Step Summary
  *************************
  Minimum Time Step           :     4.65 sec
  Average Time Step           :    13.70 sec
  Maximum Time Step           :    30.00 sec
  Percent in Steady State     :     0.00
  Average Iterations per Step :     3.08
  Percent Not Converging      :     5.95
  
  
  ***************************
  Subcatchment Runoff Summary
  ***************************
  
  ------------------------------------------------------------------------------------------------------------------------------
                            Total      Total      Total      Total     Imperv       Perv      Total       Total     Peak  Runoff
                           Precip      Runon       Evap      Infil     Runoff     Runoff     Runoff      Runoff   Runoff   Coeff
  Subcatchment                 mm         mm         mm         mm         mm         mm         mm    10^6 ltr      CMS
  ------------------------------------------------------------------------------------------------------------------------------
  1                         10.30       0.00       0.54       5.77       2.98       0.00       2.98        1.18     0.12   0.289
  2                         10.30       0.00       0.96       2.19       4.91       0.00       4.91        4.44     0.43   0.477
  3                         10.30       0.00       1.00       1.88       5.32       0.00       5.32        2.13     0.22   0.516
  4                         10.30       0.00       1.03       1.61       5.61       0.00       5.61        0.47     0.05   0.545
  5                         10.30       0.00       0.91       2.62       4.97       0.00       4.97        0.61     0.06   0.482
  6                         10.30       0.00       0.87       2.95       4.80       0.00       4.80        0.45     0.05   0.466
  7                         10.30       0.00       0.91       2.64       4.74       0.00       4.74        2.07     0.20   0.460
  8                         10.30       0.00       1.15       0.58       6.10       0.00       6.10        0.85     0.09   0.592
  9                         10.30       0.00       1.19       0.29       6.32       0.00       6.32        0.74     0.08   0.614
  10                        10.30       0.00       1.02       1.68       5.46       0.00       5.46        1.23     0.13   0.531
  11                        10.30       0.00       1.11       0.98       5.81       0.00       5.81        2.88     0.30   0.564
  12                        10.30       0.00       0.87       2.96       4.66       0.00       4.66        2.27     0.23   0.452
  13                        10.30       0.00       1.09       1.11       5.75       0.00       5.75        2.60     0.27   0.558
  14                        10.30       0.00       1.09       1.12       5.84       0.00       5.84        1.10     0.12   0.567
  15                        10.30       0.00       1.01       1.81       5.36       0.00       5.36        1.81     0.19   0.520
  16                        10.30       0.00       1.04       1.50       5.52       0.00       5.52        1.63     0.17   0.536
  17                        10.30       0.00       0.98       2.06       5.20       0.00       5.20        2.18     0.22   0.505
  18                        10.30       0.00       1.13       0.81       5.91       0.00       5.91        2.44     0.25   0.574
  19                        10.30       0.00       1.12       0.85       5.86       0.00       5.86        1.32     0.13   0.569
  20                        10.30       0.00       1.12       0.90       5.69       0.00       5.69        3.05     0.30   0.552
  21                        10.30       0.00       1.19       0.30       6.20       0.00       6.20        1.95     0.20   0.602
  22                        10.30       0.00       1.16       0.49       6.06       0.00       6.06        0.75     0.08   0.588
  23                        10.30       0.00       1.07       1.26       5.58       0.00       5.58        3.20     0.32   0.542
  24                        10.30       0.00       1.04       1.57       5.37       0.00       5.37        0.95     0.10   0.522
  25                        10.30       0.00       1.11       0.97       5.90       0.00       5.90        1.20     0.12   0.573
  26                        10.30       0.00       0.94       2.35       4.85       0.00       4.85        1.70     0.17   0.471
  27                        10.30       0.00       1.13       0.77       5.77       0.00       5.77        2.44     0.24   0.561
  28                        10.30       0.00       1.15       0.57       5.97       0.00       5.97        2.82     0.28   0.580
  29                        10.30       0.00       1.03       1.60       5.55       0.00       5.55        1.30     0.14   0.539
  30                        10.30       0.00       1.18       0.35       6.40       0.00       6.40        0.46     0.05   0.621
  31                        10.30       0.00       1.20       0.22       6.30       0.00       6.30        1.39     0.14   0.611
  32                        10.30       0.00       1.17       0.46       6.12       0.00       6.12        2.64     0.27   0.594
  33                        10.30       0.00       1.18       0.34       6.16       0.00       6.16        2.17     0.22   0.598
  34                        10.30       0.00       1.10       1.04       5.79       0.00       5.79        1.70     0.17   0.562
  35                        10.30       0.00       1.13       0.78       5.93       0.00       5.93        2.46     0.25   0.576
  36                        10.30       0.00       0.93       2.45       5.00       0.00       5.00        1.97     0.20   0.485
  37                        10.30       0.00       1.16       0.56       6.06       0.00       6.06        1.34     0.14   0.588
  38                        10.30       0.00       1.08       1.17       5.73       0.00       5.73        2.19     0.23   0.557
  39                        10.30       0.00       0.98       2.05       5.23       0.00       5.23        2.21     0.23   0.508
  40                        10.30       0.00       1.09       1.11       5.76       0.00       5.76        1.32     0.14   0.559
  41                        10.30       0.00       1.11       0.91       5.95       0.00       5.95        1.17     0.12   0.578
  42                        10.30       0.00       1.11       0.92       5.72       0.00       5.72        1.41     0.14   0.556
  43                        10.30       0.00       0.94       2.41       4.90       0.00       4.90        3.87     0.38   0.475
  44                        10.30       0.00       1.00       1.88       5.20       0.00       5.20        2.51     0.25   0.505
  45                        10.30       0.00       0.94       2.39       4.95       0.00       4.95        3.58     0.36   0.481
  46                        10.30       0.00       0.91       2.66       4.92       0.00       4.92        2.46     0.25   0.478
  47                        10.30       0.00       0.95       2.28       5.01       0.00       5.01        5.85     0.58   0.487
  48                        10.30       0.00       1.14       0.71       5.78       0.00       5.78        3.36     0.33   0.562
  49                        10.30       0.00       1.04       1.53       5.32       0.00       5.32        3.60     0.35   0.516
  50                        10.30       0.00       1.15       0.58       5.73       0.00       5.73        2.25     0.21   0.557
  51                        10.30       0.00       1.10       1.00       5.53       0.00       5.53        1.04     0.10   0.537
  52                        10.30       0.00       0.54       5.78       3.01       0.00       3.01        3.09     0.31   0.293
  53                        10.30       0.00       0.78       3.75       4.26       0.00       4.26        4.54     0.46   0.414
  54                        10.30       0.00       0.96       2.22       5.11       0.00       5.11        1.25     0.13   0.496
  55                        10.30       0.00       0.55       5.67       3.07       0.00       3.07        2.42     0.25   0.298
  56                        10.30       0.00       0.21       8.56       1.25       0.00       1.25        1.02     0.10   0.121
  57                        10.30       0.00       1.09       1.15       5.55       0.00       5.55        4.61     0.45   0.539
  58                        10.30       0.00       1.01       1.82       5.34       0.00       5.34        0.88     0.09   0.519
  59                        10.30       0.00       0.98       2.02       5.35       0.00       5.35        0.68     0.07   0.520
  60                        10.30       0.00       0.37       7.20       2.13       0.00       2.13        0.61     0.06   0.206
  61                        10.30       0.00       0.57       5.48       3.10       0.00       3.10        1.17     0.12   0.301
  62                        10.30       0.00       0.80       3.58       4.21       0.00       4.21        4.94     0.49   0.409
  63                        10.30       0.00       1.09       1.14       5.46       0.00       5.46       10.56     1.00   0.530
  64                        10.30       0.00       0.81       3.46       4.42       0.00       4.42        0.95     0.09   0.429
  65                        10.30       0.00       1.10       1.00       5.56       0.00       5.56        3.74     0.36   0.540
  66                        10.30       0.00       0.87       2.98       4.54       0.00       4.54        1.16     0.11   0.440
  67                        10.30       0.00       0.81       3.46       4.47       0.00       4.47        1.44     0.14   0.434
  68                        10.30       0.00       0.97       2.09       5.22       0.00       5.22        0.58     0.06   0.507
  69                        10.30       0.00       0.57       5.48       3.28       0.00       3.28        1.05     0.10   0.318
  70                        10.30       0.00       0.80       3.52       4.29       0.00       4.29        3.53     0.36   0.417
  71                        10.30       0.00       0.99       1.93       5.32       0.00       5.32        0.65     0.07   0.516
  72                        10.30       0.00       1.05       1.47       5.59       0.00       5.59        0.70     0.07   0.543
  73                        10.30       0.00       0.95       2.30       5.16       0.00       5.16        0.86     0.09   0.501
  74                        10.30       0.00       0.90       2.67       4.91       0.00       4.91        1.06     0.11   0.477
  75                        10.30       0.00       1.01       1.82       5.39       0.00       5.39        0.78     0.08   0.523
  76                        10.30       0.00       1.06       1.38       5.69       0.00       5.69        0.55     0.06   0.552
  77                        10.30       0.00       1.13       0.79       5.97       0.00       5.97        0.65     0.07   0.580
  78                        10.30       0.00       1.09       1.13       5.75       0.00       5.75        0.63     0.07   0.558
  79                        10.30       0.00       0.48       6.28       2.71       0.00       2.71        2.87     0.29   0.263
  80                        10.30       0.00       0.90       2.72       4.71       0.00       4.71        2.95     0.30   0.457
  81                        10.30       0.00       0.91       2.60       4.78       0.00       4.78        2.08     0.21   0.464
  82                        10.30       0.00       0.88       2.92       4.59       0.00       4.59        4.21     0.42   0.446
  83                        10.30       0.00       1.09       1.08       5.84       0.00       5.84        0.71     0.07   0.567
  84                        10.30       0.00       1.03       1.60       5.47       0.00       5.47        0.65     0.07   0.531
  85                        10.30       0.00       1.21       0.08       6.48       0.00       6.48        0.60     0.06   0.629
  86                        10.30       0.00       1.12       0.87       5.93       0.00       5.93        0.87     0.09   0.576
  87                        10.30       0.00       1.20       0.22       6.25       0.00       6.25        0.82     0.09   0.607
  88                        10.30       0.00       1.07       1.28       5.73       0.00       5.73        0.55     0.06   0.556
  89                        10.30       0.00       1.12       0.83       5.99       0.00       5.99        1.15     0.12   0.581
  90                        10.30       0.00       1.22       0.00       6.60       0.00       6.60        0.08     0.01   0.641
  91                        10.30       0.00       1.02       1.73       5.21       0.00       5.21        1.14     0.11   0.506
  92                        10.30       0.00       1.13       0.80       5.98       0.00       5.98        0.75     0.08   0.580
  93                        10.30       0.00       0.92       2.56       4.88       0.00       4.88        2.50     0.25   0.474
  94                        10.30       0.00       0.83       3.34       4.62       0.00       4.62        0.32     0.03   0.449
  95                        10.30       0.00       1.22       0.01       6.51       0.00       6.51        0.14     0.02   0.632
  96                        10.30       0.00       0.99       1.99       5.30       0.00       5.30        0.65     0.07   0.515
  97                        10.30       0.00       1.20       0.22       6.34       0.00       6.34        0.63     0.07   0.616
  98                        10.30       0.00       0.99       1.95       5.35       0.00       5.35        0.66     0.07   0.519
  99                        10.30       0.00       0.49       6.16       2.81       0.00       2.81        1.04     0.10   0.273
  100                       10.30       0.00       0.55       5.70       3.12       0.00       3.12        0.80     0.08   0.303
  101                       10.30       0.00       0.56       5.59       3.15       0.00       3.15        1.54     0.15   0.306
  102                       10.30       0.00       0.91       2.62       4.88       0.00       4.88        1.19     0.12   0.474
  103                       10.30       0.00       0.30       7.73       1.80       0.00       1.80        0.66     0.06   0.175
  104                       10.30       0.00       0.21       8.56       1.21       0.00       1.21        1.18     0.12   0.118
  105                       10.30       0.00       1.01       1.83       5.42       0.00       5.42        0.71     0.07   0.526
  106                       10.30       0.00       0.54       5.71       3.08       0.00       3.08        0.75     0.08   0.299
  
  
  ******************
  Node Depth Summary
  ******************
  
  ---------------------------------------------------------------------------------
                                 Average  Maximum  Maximum  Time of Max    Reported
                                   Depth    Depth      HGL   Occurrence   Max Depth
  Node                 Type       Meters   Meters   Meters  days hr:min      Meters
  ---------------------------------------------------------------------------------
  jd1                  JUNCTION     0.05     0.09   273.09     0  08:01        0.09
  jd2                  JUNCTION     0.13     0.23   267.23     0  08:02        0.23
  jd3                  JUNCTION     2.27     3.00   266.00     0  04:52        3.00
  jd4                  JUNCTION     0.16     0.31   267.31     0  08:02        0.30
  jd5                  JUNCTION     0.04     0.07   274.07     0  08:00        0.07
  jd6                  JUNCTION     0.04     0.08   275.08     0  08:00        0.08
  jd7                  JUNCTION     0.16     0.29   264.39     0  08:02        0.29
  jd8                  JUNCTION     0.70     2.37   266.37     0  07:30        1.45
  jd9                  JUNCTION     0.26     0.69   265.69     0  08:06        0.65
  jd10                 JUNCTION     2.30     3.00   273.00     0  04:44        3.00
  jd11                 JUNCTION     0.04     0.07   282.07     0  08:00        0.07
  jd12                 JUNCTION     2.34     3.00   272.00     0  04:35        3.00
  jd13                 JUNCTION     0.05     0.09   289.09     0  08:00        0.09
  jd14                 JUNCTION     0.10     0.19   280.19     0  08:01        0.19
  jd15                 JUNCTION     0.11     0.20   278.20     0  08:03        0.19
  jd16                 JUNCTION     0.12     0.22   274.22     0  08:01        0.22
  jd17                 JUNCTION     1.00     3.00   278.80     0  07:36        2.85
  jd18                 JUNCTION     0.10     0.18   279.18     0  08:01        0.18
  jd19                 JUNCTION     0.21     0.37   267.37     0  08:00        0.37
  jd20                 JUNCTION     0.11     0.18   273.18     0  08:00        0.18
  jd21                 JUNCTION     2.24     3.00   273.00     0  05:42        3.00
  jd22                 JUNCTION     0.77     1.28   273.28     0  08:00        1.28
  jd23                 JUNCTION     0.09     0.17   278.17     0  08:01        0.17
  jd24                 JUNCTION     0.06     0.11   285.11     0  08:00        0.11
  jd25                 JUNCTION     0.09     0.17   279.17     0  08:01        0.17
  jd26                 JUNCTION     0.10     0.19   285.19     0  08:01        0.19
  jd27                 JUNCTION     0.08     0.15   291.15     0  08:01        0.15
  jd28                 JUNCTION     2.39     3.00   290.00     0  04:23        3.00
  jd29                 JUNCTION     0.04     0.08   299.08     0  08:00        0.08
  jd30                 JUNCTION     0.05     0.09   290.09     0  08:02        0.09
  jd31                 JUNCTION     0.71     1.13   273.13     0  05:42        1.02
  jd32                 JUNCTION     2.37     3.00   275.00     0  04:29        3.00
  jd33                 JUNCTION     0.08     0.14   289.14     0  08:00        0.14
  jd34                 JUNCTION     0.08     0.16   294.16     0  08:00        0.16
  jd35                 JUNCTION     2.45     3.00   292.00     0  04:09        3.00
  jd36                 JUNCTION     0.12     0.22   299.22     0  08:02        0.22
  jd37                 JUNCTION     0.12     0.22   303.22     0  08:00        0.22
  jd38                 JUNCTION     0.14     0.26   297.26     0  08:02        0.26
  jd39                 JUNCTION     2.28     3.00   297.00     0  04:52        3.00
  jd40                 JUNCTION     0.18     0.35   299.35     0  08:04        0.34
  jd41                 JUNCTION     1.88     3.00   296.00     0  07:26        3.00
  jd42                 JUNCTION     0.08     0.14   305.14     0  08:01        0.14
  jd43                 JUNCTION     0.19     0.36   297.36     0  08:01        0.36
  jd44                 JUNCTION     0.20     0.38   283.38     0  08:02        0.38
  jd45                 JUNCTION     2.34     3.00   282.00     0  04:38        3.00
  jd46                 JUNCTION     0.11     0.19   275.19     0  08:08        0.18
  jd47                 JUNCTION     0.07     0.12   315.12     0  08:00        0.12
  jd48                 JUNCTION     0.05     0.09   325.09     0  08:00        0.09
  jd49                 JUNCTION     0.10     0.18   289.18     0  08:01        0.18
  jd50                 JUNCTION     2.41     3.00   278.00     0  04:20        3.00
  jd51                 JUNCTION     1.72     3.00   313.00     0  07:40        3.00
  jd52                 JUNCTION     0.14     0.28   323.28     0  08:04        0.28
  jd53                 JUNCTION     0.15     0.29   322.29     0  08:03        0.29
  jd54                 JUNCTION     0.12     0.22   326.22     0  08:02        0.22
  jd55                 JUNCTION     0.88     1.33   323.33     0  08:02        1.33
  jd56                 JUNCTION     0.07     0.14   327.14     0  08:00        0.14
  jd59                 JUNCTION     1.61     3.00   320.80     0  07:50        3.00
  jd60                 JUNCTION     2.35     3.00   319.00     0  04:34        3.00
  jd61                 JUNCTION     0.06     0.11   329.11     0  08:00        0.11
  jd62                 JUNCTION     0.03     0.05   335.05     0  08:00        0.05
  jd63                 JUNCTION     0.03     0.06   324.06     0  08:00        0.06
  jd64                 JUNCTION     1.45     3.00   321.00     0  07:50        2.81
  jd65                 JUNCTION     0.23     0.45   304.45     0  08:01        0.44
  jd66                 JUNCTION     2.28     3.00   304.00     0  04:49        3.00
  jd69                 JUNCTION     0.09     0.17   333.17     0  08:00        0.17
  jd79                 JUNCTION     2.15     3.00   274.00     0  04:27        3.00
  jd80                 JUNCTION     1.11     3.00   279.00     0  07:30        3.00
  jd81                 JUNCTION     0.06     0.11   288.11     0  08:00        0.11
  jd83                 JUNCTION     2.45     3.00   323.00     0  04:08        3.00
  jd84                 JUNCTION     0.09     0.17   323.17     0  08:00        0.17
  jd85                 JUNCTION     2.29     3.00   324.00     0  04:46        3.00
  jd87                 JUNCTION     2.32     3.00   322.00     0  04:40        3.00
  jd89                 JUNCTION     0.06     0.12   324.12     0  08:00        0.12
  jd90                 JUNCTION     0.06     0.11   328.11     0  08:00        0.11
  jd92                 JUNCTION     0.06     0.11   326.11     0  08:00        0.11
  jd93                 JUNCTION     0.16     0.30   324.30     0  08:02        0.30
  jd94                 JUNCTION     0.10     0.19   326.39     0  08:03        0.19
  jd95                 JUNCTION     0.13     0.25   327.25     0  08:01        0.25
  jd96                 JUNCTION     2.35     3.00   308.00     0  04:36        3.00
  jd97                 JUNCTION     0.13     0.25   327.45     0  08:00        0.25
  jd98                 JUNCTION     0.07     0.14   329.14     0  08:00        0.14
  jd99                 JUNCTION     2.27     3.00   327.00     0  04:50        3.00
  jd101                JUNCTION     0.05     0.09   321.09     0  08:00        0.09
  jd102                JUNCTION     0.09     0.17   324.17     0  08:00        0.17
  jd103                JUNCTION     0.05     0.09   318.09     0  08:00        0.09
  jd106                JUNCTION     1.89     3.00   287.00     0  06:43        3.00
  jd107                JUNCTION     0.09     0.16   332.16     0  08:01        0.16
  jd108                JUNCTION     0.88     1.15   327.15     0  08:00        1.15
  jd109                JUNCTION     0.07     0.12   343.12     0  08:00        0.12
  jd110                JUNCTION     2.29     3.00   327.00     0  04:49        3.00
  jd111                JUNCTION     0.03     0.06   344.06     0  08:00        0.06
  jd112                JUNCTION     0.04     0.07   334.07     0  08:00        0.07
  jd113                JUNCTION     0.04     0.08   348.08     0  08:00        0.08
  jd114                JUNCTION     2.33     3.00   317.00     0  04:37        3.00
  jd117                JUNCTION     0.77     1.81   317.81     0  04:51        1.05
  jd118                JUNCTION     0.04     0.07   330.07     0  08:00        0.07
  jd120                JUNCTION     0.06     0.12   327.12     0  08:00        0.12
  jd121                JUNCTION     0.07     0.12   320.12     0  08:00        0.12
  jd122                JUNCTION     2.27     3.00   276.00     0  04:54        3.00
  jd123                JUNCTION     2.23     3.00   276.20     0  04:54        3.00
  jd124                JUNCTION     2.51     3.00   271.00     0  03:51        3.00
  jd125                JUNCTION     0.17     0.33   275.33     0  08:04        0.32
  jd126                JUNCTION     2.45     3.00   275.00     0  04:08        3.00
  jd135                JUNCTION     0.06     0.11   289.11     0  08:00        0.11
  jd136                JUNCTION     0.11     0.20   341.20     0  08:00        0.20
  psk1                 OUTFALL      0.04     0.07   279.07     0  08:00        0.07
  psk2                 OUTFALL      0.05     0.09   270.09     0  08:02        0.09
  psk3                 OUTFALL      0.12     0.22   271.22     0  08:02        0.22
  psk4                 OUTFALL      0.00     0.00   280.00     0  00:00        0.00
  psk5                 OUTFALL      0.05     0.09   263.09     0  08:01        0.09
  psk6                 OUTFALL      0.04     0.07   259.07     0  08:00        0.07
  psk7                 OUTFALL      0.16     0.29   262.29     0  08:02        0.29
  psk8                 OUTFALL      0.00     0.00   317.00     0  00:00        0.00
  
  
  *******************
  Node Inflow Summary
  *******************
  
  -------------------------------------------------------------------------------------------------
                                  Maximum  Maximum                  Lateral       Total        Flow
                                  Lateral    Total  Time of Max      Inflow      Inflow     Balance
                                   Inflow   Inflow   Occurrence      Volume      Volume       Error
  Node                 Type           CMS      CMS  days hr:min    10^6 ltr    10^6 ltr     Percent
  -------------------------------------------------------------------------------------------------
  jd1                  JUNCTION     0.117    0.188     0  08:00        1.17         1.9       0.938
  jd2                  JUNCTION     0.165    0.230     0  08:00        1.69        2.35       1.550
  jd3                  JUNCTION     0.204    0.688     0  08:00        2.06        7.05       5.960
  jd4                  JUNCTION     0.240    0.272     0  08:00        2.43        2.73       1.908
  jd5                  JUNCTION     0.078    0.136     0  08:00       0.736        1.31       0.407
  jd6                  JUNCTION     0.088    0.088     0  08:00       0.845       0.845       0.564
  jd7                  JUNCTION     0.047    0.756     0  08:01       0.444        8.27       0.698
  jd8                  JUNCTION     0.064    0.548     0  08:06       0.612        6.41       3.374
  jd9                  JUNCTION     0.050    0.526     0  08:00       0.469        5.86       1.013
  jd10                 JUNCTION     0.129    0.163     0  08:00        1.23        1.56       6.880
  jd11                 JUNCTION     0.188    0.188     0  08:00         1.8         1.8       0.787
  jd12                 JUNCTION     0.138    0.299     0  08:00        1.34        2.88       4.982
  jd13                 JUNCTION     0.251    0.251     0  08:00        2.43        2.43       0.574
  jd14                 JUNCTION     0.284    0.320     0  08:00        2.81        3.16       1.064
  jd15                 JUNCTION     0.125    0.261     0  08:00        1.19        2.54       2.813
  jd16                 JUNCTION     0.136    0.489     0  08:00        1.29        4.76       1.134
  jd17                 JUNCTION     0.272    0.803     0  08:00        2.63        9.33       8.741
  jd18                 JUNCTION     0.221    0.319     0  08:00        2.12        3.05       1.524
  jd19                 JUNCTION     0.207    0.479     0  08:00        1.97        5.43       0.838
  jd20                 JUNCTION     0.168    0.378     0  08:00        1.62        4.83       1.163
  jd21                 JUNCTION     0.076    0.666     0  08:00       0.742        6.74       5.273
  jd22                 JUNCTION     0.135    0.306     0  08:00        1.31        2.99       2.858
  jd23                 JUNCTION     0.136    0.372     0  08:00        1.31         3.6       0.888
  jd24                 JUNCTION     0.225    0.225     0  08:00        2.17        2.17       0.744
  jd25                 JUNCTION     0.174    0.252     0  08:00        1.69        2.43       1.204
  jd26                 JUNCTION     0.254    0.415     0  08:00        2.45        4.06       1.098
  jd27                 JUNCTION     0.251    0.408     0  08:00         2.5        4.13       1.052
  jd28                 JUNCTION     0.329    0.463     0  08:00        3.34        4.71       2.906
  jd29                 JUNCTION     0.145    0.145     0  08:00        1.38        1.38       0.474
  jd30                 JUNCTION     0.141    0.379     0  08:00        1.41        3.84       0.660
  jd31                 JUNCTION     0.095    0.181     0  08:00       0.948        2.24      25.027
  jd32                 JUNCTION     0.201    0.812     0  08:00        1.94        8.15       3.131
  jd33                 JUNCTION     0.201    0.336     0  08:00        1.96        3.26       0.627
  jd34                 JUNCTION     0.253    0.253     0  08:00        2.45        2.45       0.523
  jd35                 JUNCTION     0.229    0.750     0  08:00         2.2        7.53       1.754
  jd36                 JUNCTION     0.351    0.577     0  08:00        3.58        5.91       1.275
  jd37                 JUNCTION     0.379    0.379     0  08:00        3.85        3.85       0.745
  jd38                 JUNCTION     0.357    0.580     0  08:00        3.56        5.86       1.682
  jd39                 JUNCTION     0.254    1.094     0  08:01        2.49        10.8       4.942
  jd40                 JUNCTION     0.415    1.011     0  08:00        4.19        9.59       1.828
  jd41                 JUNCTION     0.297    1.209     0  08:00        2.93          12      21.682
  jd42                 JUNCTION     0.359    0.400     0  08:00        3.72        4.12       1.251
  jd43                 JUNCTION     0.460    0.776     0  08:00        4.52        7.68       1.756
  jd44                 JUNCTION     0.584    1.458     0  08:00        5.82        14.6       1.689
  jd45                 JUNCTION     0.212    0.896     0  08:01        2.24         9.1       3.661
  jd46                 JUNCTION     0.098    0.098     0  08:00        1.03        1.03       4.038
  jd47                 JUNCTION     0.358    0.358     0  08:00        3.51        3.51       0.845
  jd48                 JUNCTION     0.105    0.105     0  08:00        1.04        1.04       0.743
  jd49                 JUNCTION     0.449    0.449     0  08:00        4.59        4.59       1.013
  jd50                 JUNCTION     0.486    1.788     0  08:00        4.91        18.6       2.372
  jd51                 JUNCTION     0.110    0.492     0  08:00        1.05        4.78      39.984
  jd52                 JUNCTION     0.206    0.828     0  08:00        2.07        7.58       1.521
  jd53                 JUNCTION     0.111    0.644     0  08:01        1.13        6.14       0.926
  jd54                 JUNCTION     0.066    0.328     0  08:00       0.627        3.16       1.154
  jd55                 JUNCTION     0.121    0.388     0  08:00        1.15        3.82      25.396
  jd56                 JUNCTION     0.075    0.218     0  08:00       0.706        2.05       1.018
  jd59                 JUNCTION     0.073    0.384     0  07:48       0.693        3.08      33.356
  jd60                 JUNCTION     0.129    0.274     0  08:00        1.24         2.7       4.961
  jd61                 JUNCTION     0.143    0.162     0  08:00        1.44        1.62       0.723
  jd62                 JUNCTION     0.061    0.061     0  08:00       0.606       0.606       0.286
  jd63                 JUNCTION     0.081    0.081     0  08:00       0.773       0.773       0.531
  jd64                 JUNCTION     0.068    0.175     0  07:50       0.643        1.63      29.763
  jd65                 JUNCTION     1.000    1.000     0  08:00        10.5        10.5       0.797
  jd66                 JUNCTION     0.150    0.444     0  08:00        1.54        4.45       7.565
  jd69                 JUNCTION     0.287    0.295     0  08:00        2.86        2.94       0.936
  jd79                 JUNCTION     0.268    0.456     0  08:00        2.59        4.41       4.115
  jd80                 JUNCTION     0.295    0.420     0  08:00        2.86        4.06       3.759
  jd81                 JUNCTION     0.221    0.221     0  08:00        2.16        2.16       0.253
  jd83                 JUNCTION     0.247    0.346     0  08:00        2.41        3.37       2.569
  jd84                 JUNCTION     0.315    0.315     0  08:00        3.08        3.08       0.665
  jd85                 JUNCTION     0.072    0.118     0  08:00       0.678        1.13       8.042
  jd87                 JUNCTION     0.058    0.137     0  08:00       0.548        1.34       5.793
  jd89                 JUNCTION     0.065    0.065     0  08:00       0.629       0.629       1.075
  jd90                 JUNCTION     0.068    0.068     0  08:00       0.649       0.649       0.735
  jd92                 JUNCTION     0.058    0.058     0  08:00       0.546       0.546       0.563
  jd93                 JUNCTION     0.114    0.253     0  08:00        1.15        2.49       1.273
  jd94                 JUNCTION     0.008    0.142     0  08:01      0.0754        1.36       1.427
  jd95                 JUNCTION     0.015    0.136     0  08:00       0.141         1.3       1.285
  jd96                 JUNCTION     0.116    0.154     0  08:00        1.17        1.52       6.682
  jd97                 JUNCTION     0.121    0.121     0  08:00        1.16        1.16       0.334
  jd98                 JUNCTION     0.068    0.068     0  08:00       0.645       0.645       0.567
  jd99                 JUNCTION     0.033    0.117     0  08:00       0.322        1.11       5.321
  jd101                JUNCTION     0.090    0.174     0  08:00       0.854        1.66       0.647
  jd102                JUNCTION     0.085    0.085     0  08:00       0.817       0.817       0.867
  jd103                JUNCTION     0.061    0.061     0  08:00       0.578       0.578       0.307
  jd106                JUNCTION     0.049    0.264     0  08:00       0.457        2.55      18.237
  jd107                JUNCTION     0.069    0.224     0  08:00       0.656        2.16       1.086
  jd108                JUNCTION     0.076    0.076     0  08:00       0.747       0.769       9.206
  jd109                JUNCTION     0.123    0.123     0  08:00        1.18        1.18       0.263
  jd110                JUNCTION     0.098    0.145     0  08:00        1.01        1.48      11.325
  jd111                JUNCTION     0.080    0.080     0  08:00       0.797       0.797       0.537
  jd112                JUNCTION     0.091    0.258     0  08:00       0.869        2.54       0.407
  jd113                JUNCTION     0.065    0.065     0  08:00       0.653       0.653       0.113
  jd114                JUNCTION     0.075    0.934     0  08:00       0.711        8.93       3.650
  jd117                JUNCTION     0.067    0.227     0  08:00        0.65        2.29       7.436
  jd118                JUNCTION     0.064    0.064     0  08:00         0.6         0.6       0.139
  jd120                JUNCTION     0.078    0.078     0  08:00       0.743       0.743       0.513
  jd121                JUNCTION     0.094    0.094     0  08:00       0.944       0.944       0.638
  jd122                JUNCTION     0.226    1.076     0  08:00        2.18        13.3       4.389
  jd123                JUNCTION     0.234    1.345     0  08:00        2.26        13.9       5.295
  jd124                JUNCTION     0.322    0.909     0  08:00        3.18        9.29       0.634
  jd125                JUNCTION     0.300    1.032     0  08:01        3.04        10.5       0.714
  jd126                JUNCTION     0.427    0.606     0  08:00        4.42         6.2       1.665
  jd135                JUNCTION     0.123    0.123     0  08:00        1.17        1.17       0.417
  jd136                JUNCTION     0.103    0.168     0  08:00        1.04        1.69       1.039
  psk1                 OUTFALL      0.000    0.122     0  08:00           0        1.19       0.000
  psk2                 OUTFALL      0.000    0.277     0  08:02           0        2.81       0.000
  psk3                 OUTFALL      0.000    0.483     0  08:02           0        4.71       0.000
  psk4                 OUTFALL      0.000    0.000     0  00:00           0           0       0.000 ltr
  psk5                 OUTFALL      0.000    0.120     0  08:01           0        1.22       0.000
  psk6                 OUTFALL      0.000    0.104     0  08:00           0       0.999       0.000
  psk7                 OUTFALL      0.000    0.754     0  08:02           0        8.21       0.000
  psk8                 OUTFALL      0.000    0.000     0  00:00           0           0       0.000 ltr
  
  
  **********************
  Node Surcharge Summary
  **********************
  
  Surcharging occurs when water rises above the top of the highest conduit.
  ---------------------------------------------------------------------
                                               Max. Height   Min. Depth
                                   Hours       Above Crown    Below Rim
  Node                 Type      Surcharged         Meters       Meters
  ---------------------------------------------------------------------
  jd3                  JUNCTION        6.13          2.200        0.000
  jd8                  JUNCTION        2.85          1.568        0.632
  jd10                 JUNCTION        6.26          2.400        0.000
  jd12                 JUNCTION        6.42          2.400        0.000
  jd17                 JUNCTION        3.18          2.200        0.000
  jd21                 JUNCTION        6.20          2.200        0.000
  jd22                 JUNCTION        5.60          0.681        1.719
  jd28                 JUNCTION        6.61          2.400        0.000
  jd31                 JUNCTION        5.31          0.330        1.870
  jd32                 JUNCTION        6.51          2.200        0.000
  jd35                 JUNCTION        6.85          2.400        0.000
  jd39                 JUNCTION        6.14          2.000        0.000
  jd41                 JUNCTION        3.57          1.000        0.000
  jd45                 JUNCTION        6.36          2.000        0.000
  jd50                 JUNCTION        6.67          2.200        0.000
  jd51                 JUNCTION        3.33          1.350        0.000
  jd59                 JUNCTION        3.17          1.500        0.000
  jd60                 JUNCTION        6.44          2.400        0.000
  jd64                 JUNCTION        3.20          1.800        0.000
  jd66                 JUNCTION        6.18          2.200        0.000
  jd79                 JUNCTION        6.54          2.400        0.000
  jd80                 JUNCTION        3.50          2.400        0.000
  jd83                 JUNCTION        6.87          2.400        0.000
  jd85                 JUNCTION        6.23          2.400        0.000
  jd87                 JUNCTION        6.34          2.400        0.000
  jd96                 JUNCTION        6.40          2.200        0.000
  jd99                 JUNCTION        6.16          2.400        0.000
  jd106                JUNCTION        4.52          2.000        0.000
  jd108                JUNCTION        6.37          0.147        1.853
  jd110                JUNCTION        6.19          2.000        0.000
  jd114                JUNCTION        6.39          2.000        0.000
  jd117                JUNCTION        6.15          1.011        1.189
  jd122                JUNCTION        6.17          2.200        0.000
  jd123                JUNCTION        6.10          2.200        0.000
  jd124                JUNCTION        7.15          2.400        0.000
  jd126                JUNCTION        6.87          2.400        0.000
  
  
  *********************
  Node Flooding Summary
  *********************
  
  Flooding refers to all water that overflows a node, whether it ponds or not.
  --------------------------------------------------------------------------
                                                             Total   Maximum
                                 Maximum   Time of Max       Flood    Ponded
                        Hours       Rate    Occurrence      Volume     Depth
  Node                 Flooded       CMS   days hr:min    10^6 ltr    Meters
  --------------------------------------------------------------------------
  jd3                     6.13     0.688      0  08:00       6.657     0.000
  jd10                    6.25     0.163      0  08:00       1.460     0.000
  jd12                    6.41     0.299      0  08:00       2.748     0.000
  jd17                    0.02     0.436      0  07:36       0.012     0.000
  jd21                    5.30     0.666      0  08:00       6.108     0.000
  jd28                    6.61     0.463      0  08:00       4.578     0.000
  jd32                    6.51     0.812      0  08:00       7.908     0.000
  jd35                    6.85     0.750      0  08:00       7.406     0.000
  jd39                    6.14     1.094      0  08:01      10.304     0.000
  jd41                    3.56     1.209      0  08:00       9.850     0.000
  jd45                    6.36     0.896      0  08:01       8.783     0.000
  jd50                    6.67     1.788      0  08:00      18.219     0.000
  jd51                    3.32     0.492      0  08:00       3.415     0.000
  jd59                    3.17     0.357      0  08:00       2.267     0.000
  jd60                    6.43     0.274      0  08:00       2.570     0.000
  jd64                    0.01     0.167      0  07:50       0.003     0.000
  jd66                    6.18     0.444      0  08:00       4.140     0.000
  jd79                    2.89     0.246      0  08:00       1.020     0.000
  jd80                    0.80     0.207      0  08:00       0.330     0.000
  jd83                    6.87     0.346      0  08:00       3.291     0.000
  jd85                    6.22     0.118      0  08:00       1.045     0.000
  jd87                    6.34     0.137      0  08:00       1.267     0.000
  jd96                    6.39     0.154      0  08:00       1.428     0.000
  jd99                    6.16     0.117      0  08:00       1.055     0.000
  jd106                   4.29     0.264      0  08:00       2.154     0.000
  jd110                   6.19     0.145      0  08:00       1.332     0.000
  jd114                   6.15     0.934      0  08:00       8.519     0.000
  jd122                   6.09     1.076      0  08:00      12.659     0.000
  jd123                   3.70     1.030      0  08:00       7.423     0.000
  jd124                   7.15     0.909      0  08:01       9.238     0.000
  jd126                   6.87     0.606      0  08:00       6.096     0.000
  
  
  ***********************
  Outfall Loading Summary
  ***********************
  
  -----------------------------------------------------------
                         Flow       Avg       Max       Total
                         Freq      Flow      Flow      Volume
  Outfall Node           Pcnt       CMS       CMS    10^6 ltr
  -----------------------------------------------------------
  psk1                  91.46     0.049     0.122       1.194
  psk2                  88.72     0.121     0.277       2.807
  psk3                  94.19     0.192     0.483       4.708
  psk4                   0.00     0.000     0.000       0.000
  psk5                  88.65     0.052     0.120       1.219
  psk6                  89.03     0.043     0.104       0.999
  psk7                  87.76     0.359     0.754       8.207
  psk8                   0.00     0.000     0.000       0.000
  -----------------------------------------------------------
  System                67.48     0.816     0.000      19.135
  
  
  ********************
  Link Flow Summary
  ********************
  
  -----------------------------------------------------------------------------
                                 Maximum  Time of Max   Maximum    Max/    Max/
                                  |Flow|   Occurrence   |Veloc|    Full    Full
  Link                 Type          CMS  days hr:min     m/sec    Flow   Depth
  -----------------------------------------------------------------------------
  GQ1                  CONDUIT     0.072     0  08:03      1.37    0.19    0.24
  GQ2                  CONDUIT     0.178     0  08:03      1.52    0.08    0.21
  GQ3                  CONDUIT     0.122     0  08:00      3.76    0.00    0.05
  GQ4                  CONDUIT     0.263     0  08:02      1.15    0.52    0.75
  GQ5                  CONDUIT     0.225     0  08:02      0.66    0.19    0.65
  GQ6                  CONDUIT     0.065     0  08:01      0.88    0.03    0.21
  GQ7                  CONDUIT     0.742     0  08:03      3.43    0.44    0.45
  GQ8                  CONDUIT     0.119     0  08:01      0.75    0.11    0.35
  GQ9                  CONDUIT     0.323     0  08:01      1.00    0.11    0.61
  GQ10                 CONDUIT     0.986     0  08:01      3.77    0.90    0.87
  GQ11                 CONDUIT     0.040     0  08:00      1.27    0.04    0.19
  GQ12                 CONDUIT     0.044     0  08:00      0.34    0.05    0.57
  GQ13                 CONDUIT     0.032     0  08:00      0.40    0.02    0.23
  GQ14                 CONDUIT     0.015     0  08:00      0.60    0.02    0.09
  GQ15                 CONDUIT     0.044     0  08:00      2.95    0.18    0.26
  GQ16                 CONDUIT     0.240     0  08:02      2.54    0.12    0.18
  GQ17                 CONDUIT     0.073     0  08:00      0.98    0.02    0.23
  GQ18                 CONDUIT     0.548     0  08:06      1.51    2.47    0.68
  GQ19                 CONDUIT     0.096     0  08:00      1.18    0.01    0.18
  GQ20                 CONDUIT     0.021     0  08:00      0.35    0.01    0.13
  GQ21                 CONDUIT     0.077     0  08:00      1.09    0.02    0.15
  GQ22                 CONDUIT     0.078     0  08:00      1.17    0.02    0.14
  GQ23                 CONDUIT     0.132     0  08:01      1.48    0.06    0.17
  GQ24                 CONDUIT     0.197     0  08:01      0.62    0.10    0.61
  GQ25                 CONDUIT     0.135     0  08:00      2.40    0.15    0.25
  GQ26                 CONDUIT     0.106     0  08:00      1.82    0.12    0.26
  GQ27                 CONDUIT     0.172     0  08:01      1.25    0.17    0.64
  GQ28                 CONDUIT     0.103     0  08:00      0.32    0.11    0.61
  GQ29                 CONDUIT     0.181     0  08:00      0.36    0.08    1.00
  GQ30                 CONDUIT     0.306     0  08:00      1.08    0.37    1.00
  GQ31                 CONDUIT     0.117     0  08:00      0.62    0.16    0.63
  GQ32                 CONDUIT     0.159     0  08:02      2.14    0.25    0.31
  GQ33                 CONDUIT     0.408     0  08:02      1.98    0.28    0.68
  GQ34                 CONDUIT     0.076     0  08:01      1.07    0.12    0.30
  GQ35                 CONDUIT     0.150     0  08:01      1.62    0.28    0.36
  GQ36                 CONDUIT     0.224     0  08:01      2.13    0.28    0.40
  GQ37                 CONDUIT     0.098     0  08:01      0.52    0.14    0.63
  GQ38                 CONDUIT     0.037     0  08:02      0.22    0.05    0.58
  GQ39                 CONDUIT     0.169     0  08:01      0.86    0.22    0.66
  GQ40                 CONDUIT     0.112     0  08:01      1.70    0.14    0.28
  GQ41                 CONDUIT     0.327     0  08:02      0.63    0.15    0.63
  GQ42                 CONDUIT     0.526     0  08:04      1.37    0.39    0.72
  GQ43                 CONDUIT     0.606     0  08:04      3.30    0.27    0.39
  GQ44                 CONDUIT     0.495     0  08:09      1.06    0.52    0.93
  GQ45                 CONDUIT     0.273     0  08:00      1.79    0.11    0.35
  GQ46                 CONDUIT     0.476     0  08:00      1.82    0.45    0.66
  GQ47                 CONDUIT     0.035     0  08:00      0.21    0.03    0.56
  GQ48                 CONDUIT     0.034     0  08:00      0.21    0.03    0.56
  GQ49                 CONDUIT     0.126     0  08:00      0.75    0.05    0.57
  GQ50                 CONDUIT     0.036     0  08:00      0.74    0.05    0.23
  GQ51                 CONDUIT     0.136     0  08:01      1.76    0.21    0.32
  GQ52                 CONDUIT     0.090     0  08:08      0.67    0.12    0.62
  GQ53                 CONDUIT     0.690     0  08:03      1.19    0.31    0.69
  GQ54                 CONDUIT     0.082     0  08:00      0.47    0.07    0.59
  GQ55                 CONDUIT     0.064     0  08:00      0.38    0.04    0.57
  GQ56                 CONDUIT     0.759     0  08:01      3.33    0.41    0.46
  GQ57                 CONDUIT     0.102     0  08:01      0.76    0.07    0.31
  GQ58                 CONDUIT     0.213     0  08:01      0.69    0.07    0.59
  GQ59                 CONDUIT     0.465     0  08:04      1.21    0.39    0.72
  GQ60                 CONDUIT     0.378     0  08:02      0.39    0.09    0.54
  GQ61                 CONDUIT     0.053     0  08:00      0.24    0.01    0.53
  GQ62                 CONDUIT     0.109     0  08:00      0.30    0.01    0.54
  GQ63                 CONDUIT     0.245     0  08:00      0.62    0.01    0.53
  GQ64                 CONDUIT     0.019     0  08:00      0.89    0.01    0.13
  GQ65                 CONDUIT     0.008     0  08:00      0.23    0.01    0.19
  GQ66                 CONDUIT     0.032     0  08:00      0.36    0.01    0.53
  GQ67                 CONDUIT     0.205     0  07:48      0.25    0.14    1.00
  GQ68                 CONDUIT     0.132     0  08:00      0.29    0.04    0.57
  GQ69                 CONDUIT     0.294     0  08:00      0.92    0.10    0.61
  GQ70                 CONDUIT     0.104     0  08:00      5.01    0.01    0.09
  GQ71                 CONDUIT     0.120     0  08:01      3.63    0.03    0.12
  GQ72                 CONDUIT     0.754     0  08:02      4.04    0.18    0.29
  GQ73                 CONDUIT     0.277     0  08:02      7.53    0.02    0.09
  GQ74                 CONDUIT     0.064     0  08:00      0.90    0.01    0.15
  GQ75                 CONDUIT     0.063     0  08:02      0.14    0.02    0.55
  GQ76                 CONDUIT     0.483     0  08:02      3.81    0.10    0.22
  GQ77                 CONDUIT     0.000     0  00:00      0.00    0.00    0.10
  GQ78                 CONDUIT     0.188     0  08:01      0.96    0.21    0.65
  GQ79                 CONDUIT     0.210     0  08:00      1.08    0.45    0.65
  GQ80                 CONDUIT     0.125     0  08:01      0.64    0.21    0.65
  GQ81                 CONDUIT     0.328     0  07:35      1.16    2.08    1.00
  GQ82                 CONDUIT     0.106     0  08:00      0.86    0.07    0.59
  GQ83                 CONDUIT     0.114     0  08:00      1.83    0.07    0.27
  GQ84                 CONDUIT     0.215     0  08:00      1.89    0.17    0.44
  GQ85                 CONDUIT     0.099     0  08:00      0.52    0.17    0.64
  GQ86                 CONDUIT     0.034     0  08:00      0.31    0.01    0.54
  GQ87                 CONDUIT     0.012     0  08:00      0.08    0.02    0.55
  GQ88                 CONDUIT     0.079     0  08:00      0.45    0.07    0.59
  GQ89                 CONDUIT     0.065     0  08:00      0.37    0.09    0.60
  GQ90                 CONDUIT     0.068     0  08:00      0.55    0.07    0.59
  GQ91                 CONDUIT     0.057     0  08:00      0.40    0.07    0.59
  GQ92                 CONDUIT     0.134     0  08:01      1.22    0.19    0.27
  GQ93                 CONDUIT     0.141     0  08:03      1.08    0.12    0.31
  GQ94                 CONDUIT     0.250     0  08:03      1.51    0.30    0.37
  GQ95                 CONDUIT     0.037     0  08:00      0.14    0.01    0.53
  GQ96                 CONDUIT     0.120     0  08:00      0.92    0.21    0.31
  GQ97                 CONDUIT     0.068     0  08:00      1.34    0.12    0.23
  GQ98                 CONDUIT     0.084     0  08:00      0.46    0.12    0.62
  GQ99                 CONDUIT     0.120     0  08:00      0.42    0.01    0.53
  GQ100                CONDUIT     0.085     0  08:00      1.91    0.15    0.21
  GQ101                CONDUIT     0.060     0  08:00      0.49    0.05    0.57
  GQ102                CONDUIT     0.228     0  08:00      0.82    0.07    0.59
  GQ103                CONDUIT     0.117     0  08:01      0.61    0.18    0.64
  GQ104                CONDUIT     0.192     0  08:01      1.03    0.14    0.63
  GQ105                CONDUIT     0.315     0  09:55      0.63    1.00    1.00
  GQ106                CONDUIT     0.069     0  08:00      0.46    0.07    0.59
  GQ107                CONDUIT     0.241     0  08:01      1.22    0.22    0.66
  GQ108                CONDUIT     0.803     0  08:00      1.60    0.97    1.00
  GQ109                CONDUIT     0.049     0  08:00      0.93    0.07    0.25
  GQ110                CONDUIT     0.080     0  08:00      0.43    0.01    0.54
  GQ111                CONDUIT     0.074     0  08:00      0.48    0.07    0.59
  GQ112                CONDUIT     0.222     0  08:01      1.94    0.04    0.16
  GQ113                CONDUIT     0.122     0  08:00      2.36    0.09    0.24
  GQ114                CONDUIT     0.076     0  08:00      0.16    0.03    0.57
  GQ115                CONDUIT     0.033     0  08:00      0.70    0.00    0.09
  GQ116                CONDUIT     0.047     0  08:00      0.12    0.01    0.53
  GQ117                CONDUIT     0.167     0  08:00      2.94    0.10    0.17
  GQ118                CONDUIT     0.065     0  08:00      1.38    0.02    0.18
  GQ119                CONDUIT     0.640     0  08:03      1.76    0.28    0.68
  GQ120                CONDUIT     0.000     0  00:00      0.00    0.00    0.50
  GQ121                CONDUIT     0.227     0  08:00      0.51    0.16    1.00
  GQ122                CONDUIT     0.095     0  08:00      1.00    0.02    0.55
  GQ123                CONDUIT     0.064     0  08:00      0.78    0.03    0.56
  GQ124                CONDUIT     0.040     0  08:00      0.69    0.02    0.18
  GQ125                CONDUIT     0.078     0  08:00      0.48    0.09    0.60
  GQ126                CONDUIT     0.093     0  08:00      0.52    0.09    0.60
  GQ127                CONDUIT     0.212     0  08:04      1.31    0.27    0.36
  GQ128                CONDUIT     0.325     0  08:02      1.88    0.07    0.21
  GQ129                CONDUIT     0.422     0  08:05      1.11    0.32    0.71
  GQ130                CONDUIT     0.602     0  08:04      2.56    0.56    0.78
  GQ131                CONDUIT     0.179     0  08:01      0.91    0.21    0.65
  
  
  ***************************
  Flow Classification Summary
  ***************************
  
  -------------------------------------------------------------------------------------
                      Adjusted    ---------- Fraction of Time in Flow Class ---------- 
                       /Actual         Up    Down  Sub   Sup   Up    Down  Norm  Inlet 
  Conduit               Length    Dry  Dry   Dry   Crit  Crit  Crit  Crit  Ltd   Ctrl  
  -------------------------------------------------------------------------------------
  GQ1                     1.00   0.04  0.00  0.00  0.12  0.84  0.00  0.00  0.00  0.00
  GQ2                     1.00   0.04  0.00  0.00  0.16  0.79  0.00  0.00  0.90  0.00
  GQ3                     1.00   0.08  0.00  0.00  0.04  0.87  0.00  0.00  0.27  0.00
  GQ4                     1.00   0.04  0.00  0.00  0.96  0.00  0.00  0.00  0.90  0.00
  GQ5                     1.00   0.04  0.00  0.00  0.96  0.00  0.00  0.00  0.91  0.00
  GQ6                     1.00   0.04  0.01  0.00  0.94  0.00  0.00  0.00  0.91  0.00
  GQ7                     1.00   0.04  0.00  0.00  0.09  0.87  0.00  0.00  0.03  0.00
  GQ8                     1.00   0.04  0.00  0.00  0.96  0.00  0.00  0.00  0.91  0.00
  GQ9                     1.00   0.04  0.00  0.00  0.95  0.00  0.00  0.00  0.91  0.00
  GQ10                    1.00   0.04  0.00  0.00  0.47  0.49  0.00  0.00  0.91  0.00
  GQ11                    1.00   0.04  0.00  0.00  0.28  0.68  0.00  0.00  0.88  0.00
  GQ12                    1.00   0.04  0.00  0.00  0.95  0.01  0.00  0.00  0.91  0.00
  GQ13                    1.00   0.04  0.02  0.00  0.94  0.00  0.00  0.00  0.91  0.00
  GQ14                    1.00   0.04  0.00  0.00  0.96  0.00  0.00  0.00  0.08  0.00
  GQ15                    1.00   0.04  0.00  0.00  0.08  0.87  0.00  0.00  0.01  0.00
  GQ16                    1.00   0.04  0.00  0.00  0.09  0.87  0.00  0.00  0.00  0.00
  GQ17                    1.00   0.04  0.00  0.00  0.82  0.14  0.00  0.00  0.90  0.00
  GQ18                    1.00   0.04  0.00  0.00  0.96  0.00  0.00  0.00  0.25  0.00
  GQ19                    1.00   0.04  0.00  0.00  0.78  0.17  0.00  0.00  0.90  0.00
  GQ20                    1.00   0.04  0.00  0.00  0.96  0.00  0.00  0.00  0.91  0.00
  GQ21                    1.00   0.04  0.00  0.00  0.24  0.71  0.00  0.00  0.91  0.00
  GQ22                    1.00   0.04  0.00  0.00  0.20  0.76  0.00  0.00  0.91  0.00
  GQ23                    1.00   0.04  0.00  0.00  0.10  0.86  0.00  0.00  0.27  0.00
  GQ24                    1.00   0.04  0.00  0.00  0.96  0.00  0.00  0.00  0.91  0.00
  GQ25                    1.00   0.04  0.00  0.00  0.01  0.95  0.00  0.00  0.01  0.00
  GQ26                    1.00   0.04  0.00  0.00  0.09  0.87  0.00  0.00  0.84  0.00
  GQ27                    1.00   0.04  0.00  0.00  0.84  0.12  0.00  0.00  0.91  0.00
  GQ28                    1.00   0.04  0.00  0.00  0.96  0.00  0.00  0.00  0.91  0.00
  GQ29                    1.00   0.04  0.00  0.00  0.96  0.00  0.00  0.00  0.34  0.00
  GQ30                    1.00   0.04  0.00  0.00  0.93  0.02  0.00  0.00  0.34  0.00
  GQ31                    1.00   0.04  0.00  0.00  0.96  0.00  0.00  0.00  0.91  0.00
  GQ32                    1.00   0.04  0.00  0.00  0.09  0.87  0.00  0.00  0.01  0.00
  GQ33                    1.00   0.04  0.00  0.00  0.92  0.04  0.00  0.00  0.91  0.00
  GQ34                    1.00   0.04  0.00  0.00  0.96  0.00  0.00  0.00  0.91  0.00
  GQ35                    1.00   0.04  0.00  0.00  0.09  0.87  0.00  0.00  0.45  0.00
  GQ36                    1.00   0.04  0.00  0.00  0.09  0.87  0.00  0.00  0.83  0.00
  GQ37                    1.00   0.04  0.00  0.00  0.96  0.00  0.00  0.00  0.91  0.00
  GQ38                    1.00   0.04  0.02  0.00  0.94  0.00  0.00  0.00  0.91  0.00
  GQ39                    1.00   0.04  0.00  0.00  0.93  0.03  0.00  0.00  0.91  0.00
  GQ40                    1.00   0.04  0.00  0.00  0.10  0.86  0.00  0.00  0.91  0.00
  GQ41                    1.00   0.04  0.00  0.00  0.96  0.00  0.00  0.00  0.91  0.00
  GQ42                    1.00   0.04  0.00  0.00  0.96  0.00  0.00  0.00  0.91  0.00
  GQ43                    1.00   0.04  0.00  0.00  0.09  0.87  0.00  0.00  0.91  0.00
  GQ44                    1.00   0.04  0.00  0.00  0.96  0.00  0.00  0.00  0.79  0.00
  GQ45                    1.00   0.04  0.00  0.00  0.18  0.78  0.00  0.00  0.91  0.00
  GQ46                    1.00   0.04  0.00  0.00  0.25  0.71  0.00  0.00  0.75  0.00
  GQ47                    1.00   0.04  0.00  0.00  0.96  0.00  0.00  0.00  0.91  0.00
  GQ48                    1.00   0.04  0.00  0.00  0.96  0.00  0.00  0.00  0.91  0.00
  GQ49                    1.00   0.04  0.00  0.00  0.94  0.02  0.00  0.00  0.91  0.00
  GQ50                    1.00   0.04  0.00  0.00  0.96  0.00  0.00  0.00  0.91  0.00
  GQ51                    1.00   0.04  0.00  0.00  0.09  0.87  0.00  0.00  0.64  0.00
  GQ52                    1.00   0.04  0.00  0.00  0.96  0.00  0.00  0.00  0.60  0.00
  GQ53                    1.00   0.04  0.00  0.00  0.96  0.00  0.00  0.00  0.91  0.00
  GQ54                    1.00   0.04  0.00  0.00  0.96  0.00  0.00  0.00  0.91  0.00
  GQ55                    1.00   0.04  0.00  0.00  0.96  0.00  0.00  0.00  0.91  0.00
  GQ56                    1.00   0.04  0.00  0.00  0.01  0.94  0.00  0.00  0.54  0.00
  GQ57                    1.00   0.04  0.00  0.00  0.96  0.00  0.00  0.00  0.91  0.00
  GQ58                    1.00   0.04  0.00  0.00  0.96  0.00  0.00  0.00  0.91  0.00
  GQ59                    1.00   0.04  0.00  0.00  0.96  0.00  0.00  0.00  0.91  0.00
  GQ60                    1.00   0.04  0.00  0.00  0.96  0.00  0.00  0.00  0.48  0.00
  GQ61                    1.00   0.04  0.00  0.00  0.96  0.00  0.00  0.00  0.91  0.00
  GQ62                    1.00   0.04  0.00  0.00  0.96  0.00  0.00  0.00  0.91  0.00
  GQ63                    1.00   0.04  0.00  0.00  0.94  0.02  0.00  0.00  0.91  0.00
  GQ64                    1.00   0.04  0.00  0.00  0.33  0.63  0.00  0.00  0.91  0.00
  GQ65                    1.00   0.04  0.00  0.00  0.96  0.00  0.00  0.00  0.91  0.00
  GQ66                    1.00   0.04  0.00  0.00  0.95  0.01  0.00  0.00  0.91  0.00
  GQ67                    1.00   0.04  0.00  0.00  0.96  0.00  0.00  0.00  0.31  0.00
  GQ68                    1.00   0.04  0.00  0.00  0.96  0.00  0.00  0.00  0.91  0.00
  GQ69                    1.00   0.04  0.00  0.00  0.93  0.02  0.00  0.00  0.91  0.00
  GQ70                    1.00   0.06  0.00  0.00  0.07  0.87  0.00  0.00  0.02  0.00
  GQ71                    1.00   0.06  0.00  0.00  0.07  0.87  0.00  0.00  0.13  0.00
  GQ72                    1.00   0.04  0.00  0.00  0.01  0.95  0.00  0.00  0.20  0.00
  GQ73                    1.00   0.06  0.00  0.00  0.07  0.87  0.00  0.00  0.04  0.00
  GQ74                    1.00   0.04  0.00  0.00  0.87  0.09  0.00  0.00  0.90  0.00
  GQ75                    1.00   0.04  0.02  0.00  0.94  0.00  0.00  0.00  0.91  0.00
  GQ76                    1.00   0.04  0.00  0.00  0.00  0.95  0.00  0.00  0.17  0.00
  GQ77                    1.00   0.04  0.96  0.00  0.00  0.00  0.00  0.00  0.00  0.00
  GQ78                    1.00   0.04  0.00  0.00  0.96  0.00  0.00  0.00  0.91  0.00
  GQ79                    1.00   0.04  0.00  0.00  0.96  0.00  0.00  0.00  0.31  0.00
  GQ80                    1.00   0.04  0.00  0.00  0.96  0.00  0.00  0.00  0.91  0.00
  GQ81                    1.00   0.04  0.00  0.00  0.96  0.00  0.00  0.00  0.11  0.00
  GQ82                    1.00   0.04  0.00  0.00  0.92  0.04  0.00  0.00  0.90  0.00
  GQ83                    1.00   0.04  0.00  0.00  0.08  0.88  0.00  0.00  0.90  0.00
  GQ84                    1.00   0.04  0.00  0.00  0.18  0.78  0.00  0.00  0.91  0.00
  GQ85                    1.00   0.04  0.00  0.00  0.96  0.00  0.00  0.00  0.91  0.00
  GQ86                    1.00   0.04  0.00  0.00  0.95  0.00  0.00  0.00  0.91  0.00
  GQ87                    1.00   0.04  0.00  0.00  0.96  0.00  0.00  0.00  0.91  0.00
  GQ88                    1.00   0.04  0.00  0.00  0.96  0.00  0.00  0.00  0.91  0.00
  GQ89                    1.00   0.04  0.00  0.00  0.96  0.00  0.00  0.00  0.91  0.00
  GQ90                    1.00   0.04  0.00  0.00  0.93  0.02  0.00  0.00  0.91  0.00
  GQ91                    1.00   0.04  0.00  0.00  0.95  0.01  0.00  0.00  0.91  0.00
  GQ92                    1.00   0.04  0.00  0.00  0.85  0.11  0.00  0.00  0.00  0.00
  GQ93                    1.00   0.04  0.00  0.00  0.96  0.00  0.00  0.00  0.90  0.00
  GQ94                    1.00   0.04  0.00  0.00  0.14  0.82  0.00  0.00  0.00  0.00
  GQ95                    1.00   0.04  0.00  0.00  0.96  0.00  0.00  0.00  0.91  0.00
  GQ96                    1.00   0.04  0.00  0.00  0.96  0.00  0.00  0.00  0.62  0.00
  GQ97                    1.00   0.04  0.00  0.00  0.09  0.87  0.00  0.00  0.34  0.00
  GQ98                    1.00   0.04  0.00  0.00  0.96  0.00  0.00  0.00  0.90  0.00
  GQ99                    1.00   0.04  0.00  0.00  0.95  0.01  0.00  0.00  0.91  0.00
  GQ100                   1.00   0.04  0.00  0.00  0.09  0.87  0.00  0.00  0.00  0.00
  GQ101                   1.00   0.04  0.00  0.00  0.94  0.01  0.00  0.00  0.91  0.00
  GQ102                   1.00   0.04  0.00  0.00  0.93  0.02  0.00  0.00  0.91  0.00
  GQ103                   1.00   0.04  0.00  0.00  0.96  0.00  0.00  0.00  0.91  0.00
  GQ104                   1.00   0.04  0.00  0.00  0.95  0.00  0.00  0.00  0.91  0.00
  GQ105                   1.00   0.04  0.00  0.00  0.96  0.00  0.00  0.00  0.29  0.00
  GQ106                   1.00   0.04  0.00  0.00  0.94  0.01  0.00  0.00  0.91  0.00
  GQ107                   1.00   0.04  0.00  0.00  0.92  0.03  0.00  0.00  0.91  0.00
  GQ108                   1.00   0.04  0.00  0.00  0.96  0.00  0.00  0.00  0.35  0.00
  GQ109                   1.00   0.04  0.00  0.00  0.88  0.08  0.00  0.00  0.90  0.00
  GQ110                   1.00   0.04  0.00  0.00  0.95  0.01  0.00  0.00  0.91  0.00
  GQ111                   1.00   0.04  0.00  0.00  0.95  0.01  0.00  0.00  0.91  0.00
  GQ112                   1.00   0.04  0.00  0.00  0.09  0.87  0.00  0.00  0.89  0.00
  GQ113                   1.00   0.04  0.00  0.00  0.00  0.96  0.00  0.00  0.88  0.00
  GQ114                   1.00   0.04  0.00  0.00  0.96  0.00  0.00  0.00  0.33  0.00
  GQ115                   1.00   0.04  0.00  0.00  0.94  0.02  0.00  0.00  0.91  0.00
  GQ116                   1.00   0.04  0.00  0.00  0.96  0.00  0.00  0.00  0.91  0.00
  GQ117                   1.00   0.04  0.00  0.00  0.01  0.95  0.00  0.00  0.00  0.00
  GQ118                   1.00   0.04  0.00  0.00  0.42  0.53  0.00  0.00  0.91  0.00
  GQ119                   1.00   0.04  0.00  0.00  0.96  0.00  0.00  0.00  0.91  0.00
  GQ120                   1.00   0.04  0.21  0.00  0.74  0.00  0.00  0.00  0.00  0.00
  GQ121                   1.00   0.04  0.00  0.00  0.95  0.00  0.00  0.00  0.32  0.00
  GQ122                   1.00   0.04  0.04  0.00  0.81  0.10  0.00  0.00  0.90  0.00
  GQ123                   1.00   0.04  0.00  0.00  0.85  0.11  0.00  0.00  0.90  0.00
  GQ124                   1.00   0.04  0.04  0.00  0.91  0.00  0.00  0.00  0.91  0.00
  GQ125                   1.00   0.04  0.00  0.00  0.95  0.01  0.00  0.00  0.91  0.00
  GQ126                   1.00   0.04  0.00  0.00  0.95  0.01  0.00  0.00  0.91  0.00
  GQ127                   1.00   0.04  0.00  0.00  0.96  0.00  0.00  0.00  0.83  0.00
  GQ128                   1.00   0.04  0.00  0.00  0.09  0.87  0.00  0.00  0.85  0.00
  GQ129                   1.00   0.04  0.00  0.00  0.96  0.00  0.00  0.00  0.86  0.00
  GQ130                   1.00   0.04  0.00  0.00  0.80  0.16  0.00  0.00  0.86  0.00
  GQ131                   1.00   0.04  0.00  0.00  0.96  0.00  0.00  0.00  0.91  0.00
  
  
  *************************
  Conduit Surcharge Summary
  *************************
  
  ----------------------------------------------------------------------------
                                                           Hours        Hours 
                         --------- Hours Full --------   Above Full   Capacity
  Conduit                Both Ends  Upstream  Dnstream   Normal Flow   Limited
  ----------------------------------------------------------------------------
  GQ4                         0.01      0.01      6.31      0.01         0.01
  GQ5                         0.01      0.01      6.13      0.01         0.01
  GQ9                         0.01      0.01      6.67      0.01         0.01
  GQ10                        0.01      0.01      6.78      0.01         0.01
  GQ12                        0.01      0.01      3.49      0.01         0.01
  GQ18                        0.01      0.01      2.85      3.54         0.01
  GQ24                        0.01      0.01      6.51      0.01         0.01
  GQ27                        0.01      0.01      5.60      0.01         0.01
  GQ28                        0.01      0.01      6.20      0.01         0.01
  GQ29                        5.31      5.31      6.20      0.01         0.01
  GQ30                        5.60      5.60      6.36      0.01         0.01
  GQ31                        0.01      0.01      6.85      0.01         0.01
  GQ33                        0.01      0.01      6.85      0.01         0.01
  GQ37                        0.01      0.01      6.61      0.01         0.01
  GQ38                        0.01      0.01      6.61      0.01         0.01
  GQ39                        0.01      0.01      3.49      0.01         0.01
  GQ41                        0.01      0.01      6.14      0.01         0.01
  GQ42                        0.01      0.01      6.28      0.01         0.01
  GQ44                        0.01      0.01      2.85      0.01         0.01
  GQ47                        0.01      0.01      6.26      0.01         0.01
  GQ48                        0.01      0.01      6.42      0.01         0.01
  GQ49                        0.01      0.01      6.42      0.01         0.01
  GQ52                        0.01      0.01      5.31      0.01         0.01
  GQ53                        0.01      0.01      6.36      0.01         0.01
  GQ54                        0.01      0.01      6.44      0.01         0.01
  GQ55                        0.01      0.01      6.44      0.01         0.01
  GQ58                        0.01      0.01      5.96      0.01         0.01
  GQ59                        0.01      0.01      5.96      0.01         0.01
  GQ61                        0.01      0.01      3.17      0.01         0.01
  GQ62                        0.01      0.01      3.33      0.01         0.01
  GQ63                        0.01      0.01      3.57      0.01         0.01
  GQ66                        0.01      0.01      3.49      0.01         0.01
  GQ67                        3.20      3.20      3.33      0.01         0.01
  GQ68                        0.01      0.01      5.06      0.01         0.01
  GQ69                        0.01      0.01      6.18      0.01         0.01
  GQ75                        0.01      0.01      4.52      0.01         0.01
  GQ78                        0.01      0.01      6.54      0.01         0.01
  GQ79                        0.01      0.01      6.54      0.01         0.01
  GQ80                        0.01      0.01      3.50      0.01         0.01
  GQ81                        3.49      3.50      3.49      2.93         2.84
  GQ82                        0.01      0.01      3.49      0.01         0.01
  GQ85                        0.01      0.01      6.87      0.01         0.01
  GQ86                        0.01      0.01      6.23      0.01         0.01
  GQ87                        0.01      0.01      6.23      0.01         0.01
  GQ88                        0.01      0.01      6.34      0.01         0.01
  GQ89                        0.01      0.01      5.58      0.01         0.01
  GQ90                        0.01      0.01      3.73      0.01         0.01
  GQ91                        0.01      0.01      5.96      0.01         0.01
  GQ95                        0.01      0.01      6.40      0.01         0.01
  GQ98                        0.01      0.01      6.16      0.01         0.01
  GQ99                        0.01      0.01      3.41      0.01         0.01
  GQ101                       0.01      0.01      5.96      0.01         0.01
  GQ102                       0.01      0.01      6.17      0.01         0.01
  GQ103                       0.01      0.01      6.43      0.01         0.01
  GQ104                       0.01      0.01      6.43      0.01         0.01
  GQ105                       6.10      6.10      6.17      3.31         0.01
  GQ106                       0.01      0.01      6.20      0.01         0.01
  GQ107                       0.01      0.01      6.20      0.01         0.01
  GQ108                       3.18      3.18      6.10      0.01         0.01
  GQ110                       0.01      0.01      4.52      0.01         0.01
  GQ111                       0.01      0.01      5.96      0.01         0.01
  GQ114                       0.01      0.01      6.37      0.01         0.01
  GQ116                       0.01      0.01      6.19      0.01         0.01
  GQ119                       0.01      0.01      6.50      0.01         0.01
  GQ120                       0.01      0.01      6.38      0.01         0.01
  GQ121                       6.15      6.15      6.50      0.01         0.01
  GQ122                       0.01      0.01      6.15      0.01         0.01
  GQ123                       0.01      0.01      6.20      0.01         0.01
  GQ125                       0.01      0.01      5.96      0.01         0.01
  GQ126                       0.01      0.01      5.96      0.01         0.01
  GQ129                       0.01      0.01      6.51      0.01         0.01
  GQ130                       0.01      0.01      7.15      0.01         0.01
  GQ131                       0.01      0.01      6.87      0.01         0.01
  

  Analysis begun on:  Sat Mar 25 16:20:21 2023
  Analysis ended on:  Sat Mar 25 16:20:24 2023
  Total elapsed time: 00:00:03