
  OWA STORM WATER MANAGEMENT MODEL - VERSION v5.1.14 (OWA 2022-07-31)
  --------------------------------------------------------------

  INP file created by DSDAConvertToSwmmTools 
  version 0.0.1 EcoVista 
  Title/Notes: 
  
  
  *********************************************************
  NOTE: The summary statistics displayed in this report are
  based on results found at every computational time step,  
  not just on results from each reporting time step.
  *********************************************************
  
  ****************
  Analysis Options
  ****************
  Flow Units ............... CMS
  Process Models:
    Rainfall/Runoff ........ YES
    RDII ................... NO
    Snowmelt ............... NO
    Groundwater ............ NO
    Flow Routing ........... YES
    Ponding Allowed ........ NO
    Water Quality .......... NO
  Infiltration Method ...... GREEN_AMPT
  Flow Routing Method ...... DYNWAVE
  Surcharge Method ......... EXTRAN
  Starting Date ............ 07/15/2020 00:00:00
  Ending Date .............. 07/15/2020 07:00:00
  Antecedent Dry Days ...... 0.0
  Report Time Step ......... 00:30:00
  Wet Time Step ............ 00:05:00
  Dry Time Step ............ 01:00:00
  Routing Time Step ........ 30.00 sec
  Variable Time Step ....... YES
  Maximum Trials ........... 8
  Number of Threads ........ 1
  Head Tolerance ........... 0.001500 m
  
  
  **************************        Volume         Depth
  Runoff Quantity Continuity     hectare-m            mm
  **************************     ---------       -------
  Total Precipitation ......        71.135        17.799
  Evaporation Loss .........         2.238         0.560
  Infiltration Loss ........        19.010         4.757
  Surface Runoff ...........        40.303        10.085
  Final Storage ............         9.889         2.474
  Continuity Error (%) .....        -0.430
  
  
  **************************        Volume        Volume
  Flow Routing Continuity        hectare-m      10^6 ltr
  **************************     ---------     ---------
  Dry Weather Inflow .......         0.000         0.000
  Wet Weather Inflow .......        39.980       399.801
  Groundwater Inflow .......         0.000         0.000
  RDII Inflow ..............         0.000         0.000
  External Inflow ..........         0.000         0.000
  External Outflow .........         3.830        38.297
  Flooding Loss ............        34.211       342.113
  Evaporation Loss .........         0.000         0.000
  Exfiltration Loss ........         0.000         0.000
  Initial Stored Volume ....         0.000         0.000
  Final Stored Volume ......         1.730        17.296
  Continuity Error (%) .....         0.524
  
  
  *************************
  Highest Continuity Errors
  *************************
  Node jd51 (13.53%)
  Node jd55 (11.23%)
  Node jd59 (11.22%)
  Node jd64 (11.01%)
  Node jd31 (10.11%)
  
  
  ***************************
  Time-Step Critical Elements
  ***************************
  Link GQ73 (91.30%)
  
  
  ********************************
  Highest Flow Instability Indexes
  ********************************
  Link GQ67 (23)
  Link GQ29 (11)
  Link GQ46 (10)
  Link GQ44 (4)
  Link GQ114 (3)
  
  
  *************************
  Routing Time Step Summary
  *************************
  Minimum Time Step           :     5.97 sec
  Average Time Step           :     9.53 sec
  Maximum Time Step           :    30.00 sec
  Percent in Steady State     :     0.00
  Average Iterations per Step :     3.55
  Percent Not Converging      :     9.72
  
  
  ***************************
  Subcatchment Runoff Summary
  ***************************
  
  ------------------------------------------------------------------------------------------------------------------------------
                            Total      Total      Total      Total     Imperv       Perv      Total       Total     Peak  Runoff
                           Precip      Runon       Evap      Infil     Runoff     Runoff     Runoff      Runoff   Runoff   Coeff
  Subcatchment                 mm         mm         mm         mm         mm         mm         mm    10^6 ltr      CMS
  ------------------------------------------------------------------------------------------------------------------------------
  1                         17.80       0.00       0.34       9.97       6.22       0.00       6.22        2.46     0.22   0.350
  2                         17.80       0.00       0.60       3.79      10.52       0.00      10.52        9.51     0.87   0.591
  3                         17.80       0.00       0.62       3.25      11.37       0.00      11.37        4.55     0.41   0.639
  4                         17.80       0.00       0.64       2.79      11.99       0.00      11.99        1.01     0.09   0.674
  5                         17.80       0.00       0.57       4.53      10.58       0.00      10.58        1.31     0.11   0.595
  6                         17.80       0.00       0.55       5.10      10.22       0.00      10.22        0.95     0.08   0.574
  7                         17.80       0.00       0.57       4.55      10.12       0.00      10.12        4.41     0.40   0.569
  8                         17.80       0.00       0.72       1.00      13.06       0.00      13.06        1.82     0.16   0.734
  9                         17.80       0.00       0.74       0.50      13.57       0.00      13.57        1.59     0.14   0.762
  10                        17.80       0.00       0.64       2.89      11.69       0.00      11.69        2.63     0.23   0.657
  11                        17.80       0.00       0.69       1.70      12.44       0.00      12.44        6.17     0.55   0.699
  12                        17.80       0.00       0.54       5.12       9.93       0.00       9.93        4.84     0.43   0.558
  13                        17.80       0.00       0.68       1.92      12.31       0.00      12.31        5.57     0.50   0.692
  14                        17.80       0.00       0.68       1.94      12.50       0.00      12.50        2.36     0.21   0.702
  15                        17.80       0.00       0.63       3.13      11.45       0.00      11.45        3.87     0.35   0.643
  16                        17.80       0.00       0.65       2.59      11.80       0.00      11.80        3.49     0.31   0.663
  17                        17.80       0.00       0.61       3.55      11.11       0.00      11.11        4.65     0.41   0.624
  18                        17.80       0.00       0.70       1.40      12.67       0.00      12.67        5.23     0.47   0.712
  19                        17.80       0.00       0.70       1.46      12.58       0.00      12.58        2.83     0.26   0.707
  20                        17.80       0.00       0.70       1.56      12.23       0.00      12.23        6.56     0.60   0.687
  21                        17.80       0.00       0.74       0.52      13.33       0.00      13.33        4.18     0.38   0.749
  22                        17.80       0.00       0.73       0.84      13.02       0.00      13.02        1.60     0.14   0.732
  23                        17.80       0.00       0.67       2.18      11.96       0.00      11.96        6.85     0.62   0.672
  24                        17.80       0.00       0.65       2.72      11.51       0.00      11.51        2.04     0.19   0.647
  25                        17.80       0.00       0.69       1.67      12.64       0.00      12.64        2.56     0.23   0.710
  26                        17.80       0.00       0.59       4.06      10.38       0.00      10.38        3.64     0.33   0.583
  27                        17.80       0.00       0.71       1.33      12.41       0.00      12.41        5.25     0.48   0.697
  28                        17.80       0.00       0.72       0.98      12.82       0.00      12.82        6.06     0.55   0.720
  29                        17.80       0.00       0.65       2.76      11.86       0.00      11.86        2.77     0.24   0.666
  30                        17.80       0.00       0.74       0.60      13.71       0.00      13.71        0.98     0.09   0.770
  31                        17.80       0.00       0.75       0.37      13.52       0.00      13.52        2.98     0.27   0.760
  32                        17.80       0.00       0.73       0.79      13.13       0.00      13.13        5.67     0.51   0.738
  33                        17.80       0.00       0.74       0.58      13.22       0.00      13.22        4.66     0.42   0.743
  34                        17.80       0.00       0.69       1.80      12.39       0.00      12.39        3.63     0.33   0.696
  35                        17.80       0.00       0.71       1.34      12.73       0.00      12.73        5.28     0.47   0.715
  36                        17.80       0.00       0.58       4.24      10.62       0.00      10.62        4.18     0.37   0.597
  37                        17.80       0.00       0.72       0.96      13.00       0.00      13.00        2.89     0.26   0.731
  38                        17.80       0.00       0.68       2.02      12.27       0.00      12.27        4.68     0.42   0.689
  39                        17.80       0.00       0.61       3.54      11.17       0.00      11.17        4.72     0.42   0.627
  40                        17.80       0.00       0.68       1.93      12.32       0.00      12.32        2.82     0.25   0.692
  41                        17.80       0.00       0.70       1.57      12.75       0.00      12.75        2.52     0.22   0.717
  42                        17.80       0.00       0.70       1.58      12.30       0.00      12.30        3.04     0.28   0.691
  43                        17.80       0.00       0.59       4.16      10.42       0.00      10.42        8.24     0.75   0.585
  44                        17.80       0.00       0.62       3.24      11.12       0.00      11.12        5.38     0.49   0.625
  45                        17.80       0.00       0.59       4.13      10.54       0.00      10.54        7.62     0.69   0.592
  46                        17.80       0.00       0.57       4.60      10.43       0.00      10.43        5.21     0.46   0.586
  47                        17.80       0.00       0.60       3.94      10.68       0.00      10.68       12.45     1.12   0.600
  48                        17.80       0.00       0.71       1.23      12.45       0.00      12.45        7.22     0.66   0.699
  49                        17.80       0.00       0.65       2.64      11.42       0.00      11.42        7.73     0.71   0.641
  50                        17.80       0.00       0.72       1.00      12.36       0.00      12.36        4.86     0.45   0.695
  51                        17.80       0.00       0.69       1.73      11.91       0.00      11.91        2.23     0.21   0.669
  52                        17.80       0.00       0.34       9.99       6.32       0.00       6.32        6.48     0.56   0.355
  53                        17.80       0.00       0.49       6.48       8.98       0.00       8.98        9.56     0.84   0.504
  54                        17.80       0.00       0.60       3.83      10.91       0.00      10.91        2.66     0.24   0.613
  55                        17.80       0.00       0.34       9.80       6.45       0.00       6.45        5.09     0.44   0.362
  56                        17.80       0.00       0.13      14.78       2.55       0.00       2.55        2.08     0.17   0.143
  57                        17.80       0.00       0.68       1.98      11.91       0.00      11.91        9.89     0.91   0.669
  58                        17.80       0.00       0.63       3.14      11.43       0.00      11.43        1.88     0.17   0.642
  59                        17.80       0.00       0.61       3.49      11.43       0.00      11.43        1.46     0.13   0.642
  60                        17.80       0.00       0.23      12.44       4.41       0.00       4.41        1.26     0.11   0.248
  61                        17.80       0.00       0.36       9.46       6.59       0.00       6.59        2.48     0.22   0.370
  62                        17.80       0.00       0.50       6.19       8.94       0.00       8.94       10.47     0.94   0.502
  63                        17.80       0.00       0.68       1.96      11.74       0.00      11.74       22.71     2.11   0.660
  64                        17.80       0.00       0.51       5.98       9.28       0.00       9.28        1.99     0.18   0.521
  65                        17.80       0.00       0.69       1.74      11.97       0.00      11.97        8.05     0.74   0.672
  66                        17.80       0.00       0.54       5.15       9.67       0.00       9.67        2.46     0.22   0.543
  67                        17.80       0.00       0.51       5.98       9.36       0.00       9.36        3.02     0.27   0.526
  68                        17.80       0.00       0.61       3.62      11.16       0.00      11.16        1.24     0.11   0.627
  69                        17.80       0.00       0.36       9.47       6.81       0.00       6.81        2.18     0.19   0.382
  70                        17.80       0.00       0.50       6.08       9.13       0.00       9.13        7.51     0.67   0.513
  71                        17.80       0.00       0.62       3.33      11.36       0.00      11.36        1.39     0.12   0.638
  72                        17.80       0.00       0.66       2.54      11.96       0.00      11.96        1.49     0.13   0.672
  73                        17.80       0.00       0.59       3.97      11.00       0.00      11.00        1.83     0.16   0.618
  74                        17.80       0.00       0.57       4.62      10.45       0.00      10.45        2.25     0.20   0.587
  75                        17.80       0.00       0.63       3.15      11.53       0.00      11.53        1.66     0.15   0.648
  76                        17.80       0.00       0.66       2.39      12.17       0.00      12.17        1.18     0.10   0.684
  77                        17.80       0.00       0.71       1.37      12.81       0.00      12.81        1.39     0.12   0.720
  78                        17.80       0.00       0.68       1.95      12.31       0.00      12.31        1.35     0.12   0.692
  79                        17.80       0.00       0.30      10.85       5.64       0.00       5.64        5.98     0.51   0.317
  80                        17.80       0.00       0.56       4.70      10.07       0.00      10.07        6.30     0.57   0.566
  81                        17.80       0.00       0.57       4.49      10.18       0.00      10.18        4.44     0.40   0.572
  82                        17.80       0.00       0.55       5.05       9.77       0.00       9.77        8.96     0.81   0.549
  83                        17.80       0.00       0.68       1.87      12.51       0.00      12.51        1.53     0.14   0.703
  84                        17.80       0.00       0.65       2.76      11.69       0.00      11.69        1.40     0.12   0.657
  85                        17.80       0.00       0.76       0.14      13.95       0.00      13.95        1.30     0.11   0.783
  86                        17.80       0.00       0.70       1.50      12.71       0.00      12.71        1.87     0.17   0.714
  87                        17.80       0.00       0.75       0.38      13.45       0.00      13.45        1.77     0.16   0.755
  88                        17.80       0.00       0.67       2.22      12.26       0.00      12.26        1.17     0.10   0.689
  89                        17.80       0.00       0.70       1.43      12.84       0.00      12.84        2.47     0.22   0.721
  90                        17.80       0.00       0.76       0.00      14.21       0.00      14.21        0.16     0.01   0.799
  91                        17.80       0.00       0.64       2.98      11.17       0.00      11.17        2.44     0.22   0.628
  92                        17.80       0.00       0.70       1.38      12.81       0.00      12.81        1.60     0.14   0.720
  93                        17.80       0.00       0.57       4.42      10.40       0.00      10.40        5.32     0.48   0.584
  94                        17.80       0.00       0.52       5.77       9.73       0.00       9.73        0.68     0.06   0.546
  95                        17.80       0.00       0.76       0.02      14.02       0.00      14.02        0.31     0.03   0.788
  96                        17.80       0.00       0.62       3.45      11.33       0.00      11.33        1.38     0.12   0.637
  97                        17.80       0.00       0.75       0.38      13.63       0.00      13.63        1.35     0.12   0.765
  98                        17.80       0.00       0.62       3.36      11.43       0.00      11.43        1.41     0.12   0.642
  99                        17.80       0.00       0.31      10.65       5.82       0.00       5.82        2.16     0.18   0.327
  100                       17.80       0.00       0.34       9.85       6.47       0.00       6.47        1.66     0.14   0.364
  101                       17.80       0.00       0.35       9.65       6.53       0.00       6.53        3.20     0.28   0.367
  102                       17.80       0.00       0.57       4.53      10.40       0.00      10.40        2.54     0.23   0.584
  103                       17.80       0.00       0.19      13.36       3.74       0.00       3.74        1.36     0.11   0.210
  104                       17.80       0.00       0.13      14.80       2.51       0.00       2.51        2.43     0.20   0.141
  105                       17.80       0.00       0.63       3.16      11.58       0.00      11.58        1.52     0.13   0.651
  106                       17.80       0.00       0.34       9.87       6.42       0.00       6.42        1.57     0.13   0.361
  
  
  ******************
  Node Depth Summary
  ******************
  
  ---------------------------------------------------------------------------------
                                 Average  Maximum  Maximum  Time of Max    Reported
                                   Depth    Depth      HGL   Occurrence   Max Depth
  Node                 Type       Meters   Meters   Meters  days hr:min      Meters
  ---------------------------------------------------------------------------------
  jd1                  JUNCTION     0.09     0.13   273.13     0  06:00        0.13
  jd2                  JUNCTION     0.24     0.34   267.34     0  06:00        0.34
  jd3                  JUNCTION     2.51     3.00   266.00     0  02:50        3.00
  jd4                  JUNCTION     1.10     3.00   270.00     0  04:44        3.00
  jd5                  JUNCTION     0.07     0.09   274.09     0  06:00        0.09
  jd6                  JUNCTION     0.08     0.11   275.11     0  06:00        0.11
  jd7                  JUNCTION     0.28     0.39   264.49     0  06:00        0.39
  jd8                  JUNCTION     1.71     3.00   267.00     0  05:27        2.80
  jd9                  JUNCTION     1.28     3.00   268.00     0  05:27        2.61
  jd10                 JUNCTION     2.54     3.00   273.00     0  02:43        3.00
  jd11                 JUNCTION     0.07     0.10   282.10     0  06:00        0.10
  jd12                 JUNCTION     2.57     3.00   272.00     0  02:39        3.00
  jd13                 JUNCTION     0.09     0.12   289.12     0  06:00        0.12
  jd14                 JUNCTION     0.19     0.27   280.27     0  06:00        0.27
  jd15                 JUNCTION     0.20     0.28   278.28     0  06:00        0.28
  jd16                 JUNCTION     0.22     0.31   274.31     0  06:00        0.31
  jd17                 JUNCTION     2.38     3.00   278.80     0  03:05        3.00
  jd18                 JUNCTION     0.19     0.28   279.28     0  06:00        0.28
  jd19                 JUNCTION     0.54     2.69   269.69     0  05:26        1.63
  jd20                 JUNCTION     0.17     0.21   273.21     0  06:00        0.21
  jd21                 JUNCTION     2.50     3.00   273.00     0  02:48        3.00
  jd22                 JUNCTION     1.26     1.98   273.98     0  06:00        1.98
  jd23                 JUNCTION     0.17     0.23   278.23     0  06:00        0.23
  jd24                 JUNCTION     0.11     0.14   285.14     0  06:00        0.14
  jd25                 JUNCTION     0.17     0.24   279.24     0  06:00        0.24
  jd26                 JUNCTION     0.19     0.27   285.27     0  06:00        0.27
  jd27                 JUNCTION     0.16     0.22   291.22     0  06:00        0.22
  jd28                 JUNCTION     2.60     3.00   290.00     0  02:33        3.00
  jd29                 JUNCTION     0.07     0.10   299.10     0  06:00        0.10
  jd30                 JUNCTION     0.09     0.13   290.13     0  06:00        0.13
  jd31                 JUNCTION     0.84     3.00   275.00     0  03:05        1.07
  jd32                 JUNCTION     2.58     3.00   275.00     0  02:37        3.00
  jd33                 JUNCTION     0.14     0.19   289.19     0  06:00        0.19
  jd34                 JUNCTION     0.16     0.22   294.22     0  06:00        0.22
  jd35                 JUNCTION     2.64     3.00   292.00     0  02:25        3.00
  jd36                 JUNCTION     0.23     0.33   299.33     0  06:00        0.33
  jd37                 JUNCTION     0.23     0.32   303.32     0  06:00        0.32
  jd38                 JUNCTION     0.27     0.38   297.38     0  06:00        0.38
  jd39                 JUNCTION     2.52     3.00   297.00     0  02:50        3.00
  jd40                 JUNCTION     0.37     0.60   299.60     0  06:00        0.60
  jd41                 JUNCTION     2.37     3.00   296.00     0  03:18        3.00
  jd42                 JUNCTION     0.14     0.20   305.20     0  06:00        0.20
  jd43                 JUNCTION     0.37     0.54   297.54     0  06:00        0.54
  jd44                 JUNCTION     0.40     0.60   283.60     0  06:00        0.60
  jd45                 JUNCTION     2.55     3.00   282.00     0  02:44        3.00
  jd46                 JUNCTION     0.20     0.29   275.29     0  06:00        0.29
  jd47                 JUNCTION     0.12     0.16   315.16     0  06:00        0.16
  jd48                 JUNCTION     0.08     0.11   325.11     0  06:00        0.11
  jd49                 JUNCTION     0.19     0.26   289.26     0  06:00        0.26
  jd50                 JUNCTION     2.62     3.00   278.00     0  02:31        3.00
  jd51                 JUNCTION     2.31     3.00   313.00     0  03:25        3.00
  jd52                 JUNCTION     0.28     0.41   323.41     0  06:00        0.41
  jd53                 JUNCTION     0.29     0.42   322.42     0  06:00        0.42
  jd54                 JUNCTION     0.21     0.29   326.29     0  06:00        0.29
  jd55                 JUNCTION     1.16     1.51   323.51     0  06:00        1.51
  jd56                 JUNCTION     0.14     0.19   327.19     0  06:00        0.19
  jd59                 JUNCTION     2.24     3.00   320.80     0  03:33        3.00
  jd60                 JUNCTION     2.58     3.00   319.00     0  02:37        3.00
  jd61                 JUNCTION     0.11     0.15   329.15     0  06:00        0.15
  jd62                 JUNCTION     0.05     0.07   335.07     0  06:00        0.07
  jd63                 JUNCTION     0.05     0.07   324.07     0  06:00        0.07
  jd64                 JUNCTION     2.07     3.00   321.00     0  03:33        2.81
  jd65                 JUNCTION     2.04     3.00   307.00     0  03:50        3.00
  jd66                 JUNCTION     2.54     3.00   304.00     0  02:45        3.00
  jd69                 JUNCTION     0.17     0.24   333.24     0  06:00        0.24
  jd79                 JUNCTION     2.59     3.00   274.00     0  02:35        3.00
  jd80                 JUNCTION     2.43     3.00   279.00     0  02:56        3.00
  jd81                 JUNCTION     0.11     0.15   288.15     0  06:00        0.15
  jd83                 JUNCTION     2.66     3.00   323.00     0  02:22        3.00
  jd84                 JUNCTION     0.17     0.24   323.24     0  06:00        0.24
  jd85                 JUNCTION     2.55     3.00   324.00     0  02:43        3.00
  jd87                 JUNCTION     2.56     3.00   322.00     0  02:41        3.00
  jd89                 JUNCTION     0.12     0.16   324.16     0  06:00        0.16
  jd90                 JUNCTION     0.10     0.14   328.14     0  06:00        0.14
  jd92                 JUNCTION     0.11     0.14   326.14     0  06:00        0.14
  jd93                 JUNCTION     0.31     0.44   324.44     0  06:00        0.44
  jd94                 JUNCTION     0.19     0.26   326.46     0  06:00        0.26
  jd95                 JUNCTION     0.24     0.34   327.34     0  06:00        0.34
  jd96                 JUNCTION     2.59     3.00   308.00     0  02:36        3.00
  jd97                 JUNCTION     0.25     0.34   327.54     0  06:00        0.34
  jd98                 JUNCTION     0.14     0.19   329.19     0  06:00        0.19
  jd99                 JUNCTION     2.53     3.00   327.00     0  02:46        3.00
  jd101                JUNCTION     0.09     0.12   321.12     0  06:00        0.12
  jd102                JUNCTION     0.17     0.24   324.24     0  06:00        0.24
  jd103                JUNCTION     0.09     0.12   318.12     0  06:00        0.12
  jd106                JUNCTION     2.41     3.00   287.00     0  03:05        3.00
  jd107                JUNCTION     0.16     0.22   332.22     0  06:00        0.22
  jd108                JUNCTION     1.03     1.22   327.22     0  02:39        1.21
  jd109                JUNCTION     0.12     0.17   343.17     0  06:00        0.17
  jd110                JUNCTION     2.56     3.00   327.00     0  02:43        3.00
  jd111                JUNCTION     0.06     0.08   344.08     0  06:00        0.08
  jd112                JUNCTION     0.07     0.10   334.10     0  06:00        0.10
  jd113                JUNCTION     0.08     0.11   348.11     0  06:00        0.11
  jd114                JUNCTION     2.55     3.00   317.00     0  02:42        3.00
  jd117                JUNCTION     0.92     3.00   319.00     0  02:49        1.17
  jd118                JUNCTION     0.07     0.10   330.10     0  06:00        0.10
  jd120                JUNCTION     0.12     0.16   327.16     0  06:00        0.16
  jd121                JUNCTION     0.12     0.17   320.17     0  06:00        0.17
  jd122                JUNCTION     2.51     3.00   276.00     0  02:48        3.00
  jd123                JUNCTION     2.49     3.00   276.20     0  02:51        3.00
  jd124                JUNCTION     2.68     3.00   271.00     0  02:16        3.00
  jd125                JUNCTION     0.69     3.00   278.00     0  05:12        2.06
  jd126                JUNCTION     2.65     3.00   275.00     0  02:23        3.00
  jd135                JUNCTION     0.10     0.14   289.14     0  06:00        0.14
  jd136                JUNCTION     0.20     0.27   341.27     0  06:00        0.27
  psk1                 OUTFALL      0.07     0.10   279.10     0  06:00        0.10
  psk2                 OUTFALL      0.09     0.13   270.13     0  06:00        0.13
  psk3                 OUTFALL      0.22     0.31   271.31     0  06:00        0.31
  psk4                 OUTFALL      0.00     0.00   280.00     0  00:00        0.00
  psk5                 OUTFALL      0.09     0.13   263.13     0  06:00        0.13
  psk6                 OUTFALL      0.07     0.09   259.09     0  06:00        0.09
  psk7                 OUTFALL      0.28     0.39   262.39     0  06:00        0.39
  psk8                 OUTFALL      0.00     0.00   317.00     0  00:00        0.00
  
  
  *******************
  Node Inflow Summary
  *******************
  
  -------------------------------------------------------------------------------------------------
                                  Maximum  Maximum                  Lateral       Total        Flow
                                  Lateral    Total  Time of Max      Inflow      Inflow     Balance
                                   Inflow   Inflow   Occurrence      Volume      Volume       Error
  Node                 Type           CMS      CMS  days hr:min    10^6 ltr    10^6 ltr     Percent
  -------------------------------------------------------------------------------------------------
  jd1                  JUNCTION     0.216    0.353     0  06:00        2.44        3.94       1.140
  jd2                  JUNCTION     0.333    0.457     0  06:00        3.61        4.98       1.692
  jd3                  JUNCTION     0.400    1.366     0  06:00        4.38        14.8       2.788
  jd4                  JUNCTION     0.481    0.538     0  06:00         5.2        5.84       4.319
  jd5                  JUNCTION     0.141    0.247     0  06:00        1.58        2.76       0.546
  jd6                  JUNCTION     0.163    0.163     0  06:00         1.8         1.8       0.723
  jd7                  JUNCTION     0.082    1.360     0  06:00       0.942        15.2       0.758
  jd8                  JUNCTION     0.114    0.964     0  06:00         1.3        11.1       2.262
  jd9                  JUNCTION     0.088    0.850     0  06:00       0.999        9.98       2.244
  jd10                 JUNCTION     0.234    0.298     0  06:00        2.61        3.32       3.125
  jd11                 JUNCTION     0.345    0.345     0  06:00        3.84        3.84       0.934
  jd12                 JUNCTION     0.260    0.563     0  06:00        2.86        6.18       2.272
  jd13                 JUNCTION     0.470    0.470     0  06:00        5.19        5.19       0.706
  jd14                 JUNCTION     0.551    0.620     0  06:00        6.01        6.76       1.187
  jd15                 JUNCTION     0.227    0.495     0  06:00        2.54        5.42       3.130
  jd16                 JUNCTION     0.245    0.938     0  06:00        2.75        10.2       1.308
  jd17                 JUNCTION     0.511    1.279     0  06:00        5.63        15.1       5.512
  jd18                 JUNCTION     0.405    0.588     0  06:00        4.52        6.52       1.771
  jd19                 JUNCTION     0.376    0.762     0  06:00        4.21        9.07       1.026
  jd20                 JUNCTION     0.312    0.532     0  06:00        3.46        6.81       1.341
  jd21                 JUNCTION     0.145    1.257     0  06:00        1.59        13.7       2.532
  jd22                 JUNCTION     0.255    0.576     0  06:00         2.8        6.33       1.330
  jd23                 JUNCTION     0.252    0.699     0  06:00        2.79        7.69       1.004
  jd24                 JUNCTION     0.415    0.415     0  06:00        4.61        4.61       0.895
  jd25                 JUNCTION     0.326    0.471     0  06:00         3.6         5.2       1.355
  jd26                 JUNCTION     0.474    0.791     0  06:00        5.24        8.67       1.263
  jd27                 JUNCTION     0.487    0.812     0  06:00        5.33         8.8       1.155
  jd28                 JUNCTION     0.664    0.934     0  06:00        7.16        10.1       1.357
  jd29                 JUNCTION     0.267    0.267     0  06:00        2.96        2.96       0.607
  jd30                 JUNCTION     0.277    0.759     0  06:00        3.01        8.19       0.743
  jd31                 JUNCTION     0.185    0.596     0  03:05        2.02        4.45      11.248
  jd32                 JUNCTION     0.377    1.841     0  06:00        4.15        17.9       1.415
  jd33                 JUNCTION     0.371    0.617     0  06:00        4.15         6.9       0.742
  jd34                 JUNCTION     0.459    0.459     0  06:00        5.17        5.17       0.610
  jd35                 JUNCTION     0.419    1.468     0  06:00        4.68          16       0.831
  jd36                 JUNCTION     0.709    1.163     0  06:00        7.66        12.6       1.442
  jd37                 JUNCTION     0.746    0.746     0  06:00        8.17        8.17       0.891
  jd38                 JUNCTION     0.686    1.132     0  06:00        7.56        12.4       1.891
  jd39                 JUNCTION     0.476    2.133     0  06:00        5.28          23       2.288
  jd40                 JUNCTION     0.809    1.986     0  06:00        8.88        20.9       1.938
  jd41                 JUNCTION     0.569    2.439     0  06:00        6.25        25.9       8.983
  jd42                 JUNCTION     0.744    0.816     0  06:00        7.98        8.81       1.383
  jd43                 JUNCTION     0.839    1.465     0  06:00        9.49        16.3       2.112
  jd44                 JUNCTION     1.121    2.827     0  06:00        12.3        30.9       1.898
  jd45                 JUNCTION     0.453    1.778     0  06:00        4.82        19.3       1.721
  jd46                 JUNCTION     0.207    0.207     0  06:00        2.21        2.21       4.345
  jd47                 JUNCTION     0.670    0.670     0  06:00        7.45        7.45       0.975
  jd48                 JUNCTION     0.186    0.186     0  06:00        2.16        2.16       0.994
  jd49                 JUNCTION     0.907    0.907     0  06:00        9.81        9.81       1.157
  jd50                 JUNCTION     0.942    2.698     0  06:00        10.4        33.8       1.295
  jd51                 JUNCTION     0.198    0.910     0  06:00        2.23        10.1      15.649
  jd52                 JUNCTION     0.402    1.591     0  06:00         4.4        16.7       1.682
  jd53                 JUNCTION     0.223    1.234     0  06:00        2.42        13.2       1.034
  jd54                 JUNCTION     0.121    0.600     0  06:00        1.34        6.68       1.367
  jd55                 JUNCTION     0.220    0.707     0  06:00        2.45        7.98      12.652
  jd56                 JUNCTION     0.133    0.390     0  06:00         1.5        4.38       1.132
  jd59                 JUNCTION     0.132    0.656     0  06:00        1.48        6.91      12.634
  jd60                 JUNCTION     0.237    0.503     0  06:00        2.64        5.66       2.313
  jd61                 JUNCTION     0.266    0.299     0  06:00           3        3.39       0.817
  jd62                 JUNCTION     0.107    0.107     0  06:00        1.25        1.25       0.413
  jd63                 JUNCTION     0.147    0.147     0  06:00        1.65        1.65       0.597
  jd64                 JUNCTION     0.124    0.305     0  06:00        1.38         3.4      12.376
  jd65                 JUNCTION     2.105    2.105     0  06:00        22.5        22.5       0.952
  jd66                 JUNCTION     0.278    0.805     0  06:00        3.17        9.21       3.573
  jd69                 JUNCTION     0.514    0.528     0  06:00        5.93         6.1       1.114
  jd79                 JUNCTION     0.499    0.908     0  06:00        5.52        9.68       1.849
  jd80                 JUNCTION     0.554    0.732     0  06:00        6.12        8.38       1.842
  jd81                 JUNCTION     0.421    0.421     0  06:00        4.62        4.62       0.317
  jd83                 JUNCTION     0.440    0.586     0  06:00        5.05        6.94       1.231
  jd84                 JUNCTION     0.559    0.559     0  06:00        6.43        6.43       0.854
  jd85                 JUNCTION     0.127    0.208     0  06:00        1.44        2.38       3.651
  jd87                 JUNCTION     0.104    0.251     0  06:00        1.17        2.82       2.689
  jd89                 JUNCTION     0.121    0.121     0  06:00        1.34        1.34       1.205
  jd90                 JUNCTION     0.124    0.124     0  06:00        1.38        1.38       0.873
  jd92                 JUNCTION     0.104    0.104     0  06:00        1.16        1.16       0.652
  jd93                 JUNCTION     0.223    0.483     0  06:00        2.44        5.28       1.495
  jd94                 JUNCTION     0.014    0.260     0  06:00       0.162        2.88       1.627
  jd95                 JUNCTION     0.027    0.246     0  06:00       0.304        2.76       1.545
  jd96                 JUNCTION     0.203    0.270     0  06:00        2.41        3.17       3.118
  jd97                 JUNCTION     0.219    0.219     0  06:00        2.46        2.46       0.438
  jd98                 JUNCTION     0.122    0.122     0  06:00        1.37        1.37       0.732
  jd99                 JUNCTION     0.059    0.208     0  06:00       0.676        2.34       2.495
  jd101                JUNCTION     0.160    0.319     0  06:00        1.81        3.55       0.770
  jd102                JUNCTION     0.159    0.159     0  06:00        1.75        1.75       1.029
  jd103                JUNCTION     0.110    0.110     0  06:00        1.23        1.23       0.355
  jd106                JUNCTION     0.086    0.493     0  06:00       0.976        5.44       7.603
  jd107                JUNCTION     0.124    0.407     0  06:00         1.4        4.58       1.308
  jd108                JUNCTION     0.135    0.135     0  06:00        1.55        1.57       4.332
  jd109                JUNCTION     0.225    0.225     0  06:00        2.52        2.52       0.334
  jd110                JUNCTION     0.171    0.255     0  06:00        2.06        3.03       5.245
  jd111                JUNCTION     0.142    0.142     0  06:00        1.65        1.65       0.697
  jd112                JUNCTION     0.167    0.465     0  06:00        1.86         5.3       0.541
  jd113                JUNCTION     0.113    0.113     0  06:00        1.35        1.35       0.229
  jd114                JUNCTION     0.136    1.779     0  06:00        1.52        19.2       1.672
  jd117                JUNCTION     0.125    0.411     0  06:00        1.38        4.71       3.454
  jd118                JUNCTION     0.115    0.115     0  06:00        1.29        1.29       0.176
  jd120                JUNCTION     0.143    0.143     0  06:00        1.59        1.59       0.586
  jd121                JUNCTION     0.176    0.176     0  06:00        1.98        1.98       0.718
  jd122                JUNCTION     0.419    1.762     0  06:00        4.64        20.6       2.801
  jd123                JUNCTION     0.431    1.850     0  06:00         4.8        23.4       3.082
  jd124                JUNCTION     0.620    1.618     0  06:00        6.79        19.2       0.318
  jd125                JUNCTION     0.602    2.086     0  06:00        6.51        22.4       0.897
  jd126                JUNCTION     0.873    1.225     0  06:00        9.43        13.2       0.776
  jd135                JUNCTION     0.223    0.223     0  06:00         2.5         2.5       0.522
  jd136                JUNCTION     0.185    0.298     0  06:00        2.15        3.49       1.316
  psk1                 OUTFALL      0.000    0.221     0  06:00           0         2.5       0.000
  psk2                 OUTFALL      0.000    0.559     0  06:00           0        5.99       0.000
  psk3                 OUTFALL      0.000    0.937     0  06:00           0        10.1       0.000
  psk4                 OUTFALL      0.000    0.000     0  00:00           0           0       0.000 ltr
  psk5                 OUTFALL      0.000    0.229     0  06:00           0        2.53       0.000
  psk6                 OUTFALL      0.000    0.189     0  06:00           0         2.1       0.000
  psk7                 OUTFALL      0.000    1.360     0  06:00           0        15.1       0.000
  psk8                 OUTFALL      0.000    0.000     0  00:00           0           0       0.000 ltr
  
  
  **********************
  Node Surcharge Summary
  **********************
  
  Surcharging occurs when water rises above the top of the highest conduit.
  ---------------------------------------------------------------------
                                               Max. Height   Min. Depth
                                   Hours       Above Crown    Below Rim
  Node                 Type      Surcharged         Meters       Meters
  ---------------------------------------------------------------------
  jd3                  JUNCTION        4.16          2.200        0.000
  jd4                  JUNCTION        1.87          2.200        0.000
  jd8                  JUNCTION        4.06          2.200        0.000
  jd9                  JUNCTION        3.57          2.200        0.000
  jd10                 JUNCTION        4.27          2.400        0.000
  jd12                 JUNCTION        4.35          2.400        0.000
  jd17                 JUNCTION        3.92          2.200        0.000
  jd19                 JUNCTION        0.66          1.890        0.310
  jd21                 JUNCTION        4.20          2.200        0.000
  jd22                 JUNCTION        4.01          1.379        1.021
  jd28                 JUNCTION        4.46          2.400        0.000
  jd31                 JUNCTION        3.91          2.200        0.000
  jd32                 JUNCTION        4.38          2.200        0.000
  jd35                 JUNCTION        4.59          2.400        0.000
  jd39                 JUNCTION        4.17          2.000        0.000
  jd41                 JUNCTION        3.69          1.000        0.000
  jd45                 JUNCTION        4.27          2.000        0.000
  jd50                 JUNCTION        4.48          2.200        0.000
  jd51                 JUNCTION        3.58          1.350        0.000
  jd55                 JUNCTION        0.38          0.008        1.492
  jd59                 JUNCTION        3.45          1.500        0.000
  jd60                 JUNCTION        4.38          2.400        0.000
  jd64                 JUNCTION        3.48          1.800        0.000
  jd65                 JUNCTION        3.16          2.400        0.000
  jd66                 JUNCTION        4.25          2.200        0.000
  jd79                 JUNCTION        4.42          2.400        0.000
  jd80                 JUNCTION        4.07          2.400        0.000
  jd83                 JUNCTION        4.63          2.400        0.000
  jd85                 JUNCTION        4.29          2.400        0.000
  jd87                 JUNCTION        4.32          2.400        0.000
  jd96                 JUNCTION        4.40          2.200        0.000
  jd99                 JUNCTION        4.23          2.400        0.000
  jd106                JUNCTION        3.91          2.000        0.000
  jd108                JUNCTION        4.35          0.215        1.785
  jd110                JUNCTION        4.28          2.000        0.000
  jd114                JUNCTION        4.30          2.000        0.000
  jd117                JUNCTION        4.18          2.200        0.000
  jd122                JUNCTION        4.20          2.200        0.000
  jd123                JUNCTION        4.14          2.200        0.000
  jd124                JUNCTION        4.74          2.400        0.000
  jd125                JUNCTION        1.12          2.200        0.000
  jd126                JUNCTION        4.61          2.400        0.000
  
  
  *********************
  Node Flooding Summary
  *********************
  
  Flooding refers to all water that overflows a node, whether it ponds or not.
  --------------------------------------------------------------------------
                                                             Total   Maximum
                                 Maximum   Time of Max       Flood    Ponded
                        Hours       Rate    Occurrence      Volume     Depth
  Node                 Flooded       CMS   days hr:min    10^6 ltr    Meters
  --------------------------------------------------------------------------
  jd3                     4.16     1.366      0  06:00      14.432     0.000
  jd4                     0.63     0.049      0  04:44       0.041     0.000
  jd8                     0.01     0.035      0  05:27       0.001     0.000
  jd9                     0.01     0.030      0  05:27       0.000     0.000
  jd10                    4.27     0.298      0  06:00       3.220     0.000
  jd12                    4.35     0.563      0  06:00       6.043     0.000
  jd17                    2.61     0.583      0  03:05       2.240     0.000
  jd21                    3.91     1.257      0  06:00      13.031     0.000
  jd28                    4.45     0.934      0  06:00       9.936     0.000
  jd31                    0.01     0.361      0  03:05       0.003     0.000
  jd32                    4.37     1.841      0  06:00      17.693     0.000
  jd35                    4.59     1.468      0  06:00      15.876     0.000
  jd39                    4.17     2.132      0  06:00      22.519     0.000
  jd41                    3.69     2.439      0  06:00      23.776     0.000
  jd45                    4.27     1.778      0  06:00      18.956     0.000
  jd50                    4.48     2.698      0  06:00      33.365     0.000
  jd51                    3.58     0.910      0  06:00       8.753     0.000
  jd59                    3.45     0.656      0  06:00       6.125     0.000
  jd60                    4.37     0.503      0  06:00       5.533     0.000
  jd64                    0.01     0.174      0  03:33       0.003     0.000
  jd65                    3.16     1.012      0  06:00       5.991     0.000
  jd66                    4.24     0.805      0  06:00       8.891     0.000
  jd79                    4.26     0.689      0  06:00       6.162     0.000
  jd80                    3.92     0.574      0  06:00       5.427     0.000
  jd83                    4.63     0.586      0  06:00       6.857     0.000
  jd85                    4.28     0.208      0  06:00       2.299     0.000
  jd87                    4.32     0.251      0  06:00       2.746     0.000
  jd96                    4.40     0.270      0  06:00       3.070     0.000
  jd99                    4.23     0.208      0  06:00       2.281     0.000
  jd106                   3.91     0.493      0  06:00       5.056     0.000
  jd110                   4.28     0.255      0  06:00       2.881     0.000
  jd114                   4.19     1.779      0  06:00      18.751     0.000
  jd117                   0.01     0.320      0  02:49       0.002     0.000
  jd122                   4.14     1.762      0  06:00      19.915     0.000
  jd123                   4.14     1.535      0  06:00      18.006     0.000
  jd124                   4.74     1.618      0  06:00      19.178     0.000
  jd125                   0.01     0.091      0  05:12       0.001     0.000
  jd126                   4.61     1.225      0  06:00      13.134     0.000
  
  
  ***********************
  Outfall Loading Summary
  ***********************
  
  -----------------------------------------------------------
                         Flow       Avg       Max       Total
                         Freq      Flow      Flow      Volume
  Outfall Node           Pcnt       CMS       CMS    10^6 ltr
  -----------------------------------------------------------
  psk1                  95.09     0.145     0.221       2.501
  psk2                  94.93     0.352     0.559       5.988
  psk3                  95.20     0.590     0.937      10.079
  psk4                   0.00     0.000     0.000       0.000
  psk5                  95.05     0.148     0.229       2.528
  psk6                  94.90     0.123     0.189       2.104
  psk7                  95.16     0.886     1.360      15.097
  psk8                   0.00     0.000     0.000       0.000
  -----------------------------------------------------------
  System                71.29     2.243     0.000      38.297
  
  
  ********************
  Link Flow Summary
  ********************
  
  -----------------------------------------------------------------------------
                                 Maximum  Time of Max   Maximum    Max/    Max/
                                  |Flow|   Occurrence   |Veloc|    Full    Full
  Link                 Type          CMS  days hr:min     m/sec    Flow   Depth
  -----------------------------------------------------------------------------
  GQ1                  CONDUIT     0.137     0  06:00      1.63    0.36    0.34
  GQ2                  CONDUIT     0.356     0  06:00      1.87    0.17    0.29
  GQ3                  CONDUIT     0.221     0  06:00      4.52    0.01    0.06
  GQ4                  CONDUIT     0.510     0  05:47      1.80    1.00    1.00
  GQ5                  CONDUIT     0.456     0  06:00      1.19    0.38    0.71
  GQ6                  CONDUIT     0.124     0  06:00      1.01    0.06    0.29
  GQ7                  CONDUIT     1.490     0  06:02      3.49    0.89    0.88
  GQ8                  CONDUIT     0.244     0  06:00      0.91    0.23    0.54
  GQ9                  CONDUIT     0.662     0  06:00      1.87    0.23    0.66
  GQ10                 CONDUIT     1.137     0  03:47      4.08    1.04    1.00
  GQ11                 CONDUIT     0.072     0  06:00      1.46    0.08    0.26
  GQ12                 CONDUIT     0.083     0  06:00      0.47    0.09    0.60
  GQ13                 CONDUIT     0.058     0  06:00      0.41    0.03    0.56
  GQ14                 CONDUIT     0.027     0  06:00      0.74    0.04    0.13
  GQ15                 CONDUIT     0.079     0  06:00      3.50    0.32    0.35
  GQ16                 CONDUIT     0.482     0  06:00      3.08    0.23    0.25
  GQ17                 CONDUIT     0.135     0  06:00      1.06    0.04    0.32
  GQ18                 CONDUIT     0.964     0  06:00      2.40    4.35    0.75
  GQ19                 CONDUIT     0.178     0  06:00      1.25    0.02    0.25
  GQ20                 CONDUIT     0.039     0  06:00      0.38    0.02    0.19
  GQ21                 CONDUIT     0.143     0  06:00      1.19    0.04    0.21
  GQ22                 CONDUIT     0.145     0  06:00      1.38    0.04    0.19
  GQ23                 CONDUIT     0.254     0  06:00      1.79    0.12    0.24
  GQ24                 CONDUIT     0.377     0  06:00      1.10    0.19    0.65
  GQ25                 CONDUIT     0.246     0  06:00      2.84    0.28    0.34
  GQ26                 CONDUIT     0.193     0  06:00      2.13    0.23    0.36
  GQ27                 CONDUIT     0.321     0  06:00      1.53    0.32    0.70
  GQ28                 CONDUIT     0.146     0  06:00      0.43    0.16    0.63
  GQ29                 CONDUIT     0.452     0  03:05      0.97    0.21    1.00
  GQ30                 CONDUIT     0.576     0  06:00      2.04    0.70    1.00
  GQ31                 CONDUIT     0.214     0  06:00      1.04    0.29    0.68
  GQ32                 CONDUIT     0.325     0  06:00      2.59    0.52    0.46
  GQ33                 CONDUIT     0.836     0  06:00      3.56    0.58    0.77
  GQ34                 CONDUIT     0.156     0  06:00      1.29    0.24    0.44
  GQ35                 CONDUIT     0.299     0  06:00      1.92    0.55    0.54
  GQ36                 CONDUIT     0.446     0  06:00      2.63    0.55    0.58
  GQ37                 CONDUIT     0.197     0  06:00      0.96    0.28    0.68
  GQ38                 CONDUIT     0.073     0  06:00      0.41    0.10    0.61
  GQ39                 CONDUIT     0.326     0  06:00      1.48    0.42    0.73
  GQ40                 CONDUIT     0.227     0  06:00      2.10    0.28    0.41
  GQ41                 CONDUIT     0.648     0  06:00      1.13    0.30    0.69
  GQ42                 CONDUIT     1.009     0  06:01      2.16    0.74    0.88
  GQ43                 CONDUIT     1.177     0  06:00      3.69    0.53    0.63
  GQ44                 CONDUIT     0.850     0  06:00      1.69    0.90    1.00
  GQ45                 CONDUIT     0.386     0  06:00      1.78    0.16    0.63
  GQ46                 CONDUIT     0.762     0  06:00      1.85    0.71    1.00
  GQ47                 CONDUIT     0.064     0  06:00      0.37    0.06    0.58
  GQ48                 CONDUIT     0.063     0  06:00      0.37    0.06    0.58
  GQ49                 CONDUIT     0.240     0  06:00      1.35    0.09    0.60
  GQ50                 CONDUIT     0.069     0  06:00      0.87    0.09    0.32
  GQ51                 CONDUIT     0.267     0  06:00      2.14    0.41    0.45
  GQ52                 CONDUIT     0.205     0  06:00      0.75    0.27    0.68
  GQ53                 CONDUIT     1.326     0  06:01      1.97    0.60    0.80
  GQ54                 CONDUIT     0.152     0  06:00      0.82    0.13    0.62
  GQ55                 CONDUIT     0.114     0  06:00      0.65    0.08    0.59
  GQ56                 CONDUIT     1.463     0  06:00      3.88    0.80    0.71
  GQ57                 CONDUIT     0.214     0  06:00      0.94    0.14    0.46
  GQ58                 CONDUIT     0.445     0  06:00      1.34    0.14    0.63
  GQ59                 CONDUIT     0.961     0  06:01      2.06    0.80    0.88
  GQ60                 CONDUIT     0.707     0  06:00      0.59    0.17    0.64
  GQ61                 CONDUIT     0.098     0  06:00      0.24    0.01    0.54
  GQ62                 CONDUIT     0.205     0  06:00      0.33    0.02    0.55
  GQ63                 CONDUIT     0.464     0  06:00      0.60    0.01    0.54
  GQ64                 CONDUIT     0.033     0  06:00      1.02    0.03    0.18
  GQ65                 CONDUIT     0.014     0  06:00      0.26    0.03    0.25
  GQ66                 CONDUIT     0.058     0  06:00      0.41    0.02    0.55
  GQ67                 CONDUIT     0.305     0  06:00      0.34    0.21    1.00
  GQ68                 CONDUIT     0.241     0  06:00      0.50    0.08    0.59
  GQ69                 CONDUIT     0.528     0  06:00      1.53    0.19    0.65
  GQ70                 CONDUIT     0.189     0  06:00      6.00    0.03    0.11
  GQ71                 CONDUIT     0.229     0  06:00      4.40    0.06    0.16
  GQ72                 CONDUIT     1.360     0  06:00      4.76    0.32    0.39
  GQ73                 CONDUIT     0.559     0  06:00      9.27    0.04    0.13
  GQ74                 CONDUIT     0.119     0  06:00      1.04    0.02    0.20
  GQ75                 CONDUIT     0.126     0  06:00      0.27    0.04    0.57
  GQ76                 CONDUIT     0.937     0  06:00      4.61    0.20    0.31
  GQ77                 CONDUIT     0.000     0  00:00      0.00    0.00    0.14
  GQ78                 CONDUIT     0.409     0  06:00      1.84    0.45    0.73
  GQ79                 CONDUIT     0.219     0  06:00      1.08    0.47    0.68
  GQ80                 CONDUIT     0.178     0  06:00      0.80    0.29    0.73
  GQ81                 CONDUIT     0.389     0  03:05      1.38    2.46    1.00
  GQ82                 CONDUIT     0.202     0  06:00      1.09    0.14    0.63
  GQ83                 CONDUIT     0.218     0  06:00      2.21    0.14    0.38
  GQ84                 CONDUIT     0.412     0  06:00      2.15    0.33    0.65
  GQ85                 CONDUIT     0.147     0  06:00      0.70    0.25    0.70
  GQ86                 CONDUIT     0.060     0  06:00      0.37    0.03    0.56
  GQ87                 CONDUIT     0.021     0  06:00      0.13    0.03    0.56
  GQ88                 CONDUIT     0.147     0  06:00      0.79    0.13    0.62
  GQ89                 CONDUIT     0.121     0  06:00      0.64    0.16    0.63
  GQ90                 CONDUIT     0.124     0  06:00      0.70    0.12    0.62
  GQ91                 CONDUIT     0.104     0  06:00      0.56    0.13    0.62
  GQ92                 CONDUIT     0.246     0  06:00      1.45    0.35    0.37
  GQ93                 CONDUIT     0.260     0  06:00      1.25    0.22    0.43
  GQ94                 CONDUIT     0.482     0  06:00      1.87    0.57    0.53
  GQ95                 CONDUIT     0.067     0  06:00      0.24    0.02    0.55
  GQ96                 CONDUIT     0.219     0  06:00      1.09    0.37    0.42
  GQ97                 CONDUIT     0.122     0  06:00      1.59    0.22    0.32
  GQ98                 CONDUIT     0.149     0  06:00      0.76    0.21    0.66
  GQ99                 CONDUIT     0.221     0  06:00      0.44    0.01    0.54
  GQ100                CONDUIT     0.159     0  06:00      2.30    0.27    0.29
  GQ101                CONDUIT     0.110     0  06:00      0.62    0.08    0.60
  GQ102                CONDUIT     0.424     0  06:00      1.29    0.13    0.62
  GQ103                CONDUIT     0.217     0  06:00      1.03    0.33    0.70
  GQ104                CONDUIT     0.388     0  06:00      1.89    0.28    0.68
  GQ105                CONDUIT     0.436     0  02:51      0.87    1.38    1.00
  GQ106                CONDUIT     0.126     0  06:00      0.68    0.13    0.62
  GQ107                CONDUIT     0.464     0  06:00      2.11    0.42    0.73
  GQ108                CONDUIT     0.829     0  04:54      1.65    1.00    1.00
  GQ109                CONDUIT     0.090     0  06:00      1.05    0.12    0.34
  GQ110                CONDUIT     0.148     0  06:00      0.41    0.02    0.55
  GQ111                CONDUIT     0.133     0  06:00      0.73    0.12    0.62
  GQ112                CONDUIT     0.407     0  06:00      2.31    0.07    0.21
  GQ113                CONDUIT     0.225     0  06:00      2.86    0.17    0.32
  GQ114                CONDUIT     0.135     0  06:00      0.28    0.06    0.59
  GQ115                CONDUIT     0.058     0  06:00      0.79    0.01    0.12
  GQ116                CONDUIT     0.084     0  06:00      0.20    0.01    0.54
  GQ117                CONDUIT     0.297     0  06:00      3.46    0.19    0.23
  GQ118                CONDUIT     0.113     0  06:00      1.37    0.04    0.23
  GQ119                CONDUIT     1.233     0  06:00      3.01    0.54    0.76
  GQ120                CONDUIT     0.000     0  00:00      0.00    0.00    0.50
  GQ121                CONDUIT     0.411     0  06:00      0.82    0.29    1.00
  GQ122                CONDUIT     0.172     0  06:00      1.44    0.03    0.56
  GQ123                CONDUIT     0.115     0  06:00      1.02    0.06    0.58
  GQ124                CONDUIT     0.072     0  06:00      0.79    0.03    0.24
  GQ125                CONDUIT     0.143     0  06:00      0.75    0.16    0.64
  GQ126                CONDUIT     0.176     0  06:00      0.92    0.17    0.64
  GQ127                CONDUIT     0.411     0  06:00      1.56    0.53    0.52
  GQ128                CONDUIT     0.599     0  06:00      2.14    0.13    0.30
  GQ129                CONDUIT     1.087     0  06:00      2.16    0.83    1.00
  GQ130                CONDUIT     0.998     0  06:00      3.53    0.93    1.00
  GQ131                CONDUIT     0.352     0  06:00      1.61    0.41    0.72
  
  
  ***************************
  Flow Classification Summary
  ***************************
  
  -------------------------------------------------------------------------------------
                      Adjusted    ---------- Fraction of Time in Flow Class ---------- 
                       /Actual         Up    Down  Sub   Sup   Up    Down  Norm  Inlet 
  Conduit               Length    Dry  Dry   Dry   Crit  Crit  Crit  Crit  Ltd   Ctrl  
  -------------------------------------------------------------------------------------
  GQ1                     1.00   0.05  0.00  0.00  0.06  0.89  0.00  0.00  0.00  0.00
  GQ2                     1.00   0.05  0.00  0.00  0.09  0.87  0.00  0.00  0.86  0.00
  GQ3                     1.00   0.05  0.00  0.00  0.00  0.95  0.00  0.00  0.30  0.00
  GQ4                     1.00   0.05  0.00  0.00  0.95  0.00  0.00  0.00  0.30  0.00
  GQ5                     1.00   0.05  0.00  0.00  0.95  0.00  0.00  0.00  0.86  0.00
  GQ6                     1.00   0.05  0.00  0.00  0.95  0.00  0.00  0.00  0.86  0.00
  GQ7                     1.00   0.05  0.00  0.00  0.01  0.95  0.00  0.00  0.33  0.00
  GQ8                     1.00   0.05  0.00  0.00  0.95  0.00  0.00  0.00  0.85  0.00
  GQ9                     1.00   0.05  0.00  0.00  0.94  0.02  0.00  0.00  0.86  0.00
  GQ10                    1.00   0.05  0.00  0.00  0.73  0.22  0.00  0.00  0.36  0.00
  GQ11                    1.00   0.05  0.00  0.00  0.00  0.95  0.00  0.00  0.83  0.00
  GQ12                    1.00   0.05  0.00  0.00  0.95  0.00  0.00  0.00  0.86  0.00
  GQ13                    1.00   0.05  0.00  0.00  0.95  0.00  0.00  0.00  0.86  0.00
  GQ14                    1.00   0.05  0.00  0.00  0.95  0.00  0.00  0.00  0.00  0.00
  GQ15                    1.00   0.05  0.00  0.00  0.00  0.95  0.00  0.00  0.01  0.00
  GQ16                    1.00   0.05  0.00  0.00  0.01  0.94  0.00  0.00  0.00  0.00
  GQ17                    1.00   0.05  0.00  0.00  0.83  0.13  0.00  0.00  0.86  0.00
  GQ18                    1.00   0.05  0.00  0.00  0.83  0.12  0.00  0.00  0.18  0.00
  GQ19                    1.00   0.05  0.00  0.00  0.81  0.15  0.00  0.00  0.86  0.00
  GQ20                    1.00   0.05  0.00  0.00  0.95  0.00  0.00  0.00  0.86  0.00
  GQ21                    1.00   0.05  0.00  0.00  0.23  0.72  0.00  0.00  0.86  0.00
  GQ22                    1.00   0.05  0.00  0.00  0.02  0.94  0.00  0.00  0.86  0.00
  GQ23                    1.00   0.05  0.00  0.00  0.03  0.93  0.00  0.00  0.05  0.00
  GQ24                    1.00   0.05  0.00  0.00  0.95  0.00  0.00  0.00  0.86  0.00
  GQ25                    1.00   0.05  0.00  0.00  0.00  0.95  0.00  0.00  0.01  0.00
  GQ26                    1.00   0.05  0.00  0.00  0.01  0.95  0.00  0.00  0.74  0.00
  GQ27                    1.00   0.05  0.00  0.00  0.85  0.10  0.00  0.00  0.86  0.00
  GQ28                    1.00   0.05  0.00  0.00  0.95  0.00  0.00  0.00  0.86  0.00
  GQ29                    1.00   0.05  0.00  0.00  0.95  0.00  0.00  0.00  0.26  0.00
  GQ30                    1.00   0.05  0.00  0.00  0.92  0.03  0.00  0.00  0.22  0.00
  GQ31                    1.00   0.05  0.00  0.00  0.95  0.00  0.00  0.00  0.86  0.00
  GQ32                    1.00   0.05  0.00  0.00  0.02  0.94  0.00  0.00  0.00  0.00
  GQ33                    1.00   0.05  0.00  0.00  0.19  0.76  0.00  0.00  0.86  0.00
  GQ34                    1.00   0.05  0.00  0.00  0.95  0.00  0.00  0.00  0.86  0.00
  GQ35                    1.00   0.05  0.00  0.00  0.01  0.94  0.00  0.00  0.49  0.00
  GQ36                    1.00   0.05  0.00  0.00  0.01  0.95  0.00  0.00  0.75  0.00
  GQ37                    1.00   0.05  0.00  0.00  0.95  0.00  0.00  0.00  0.86  0.00
  GQ38                    1.00   0.05  0.00  0.00  0.95  0.00  0.00  0.00  0.86  0.00
  GQ39                    1.00   0.05  0.00  0.00  0.91  0.04  0.00  0.00  0.84  0.00
  GQ40                    1.00   0.05  0.00  0.00  0.03  0.92  0.00  0.00  0.86  0.00
  GQ41                    1.00   0.05  0.00  0.00  0.95  0.00  0.00  0.00  0.86  0.00
  GQ42                    1.00   0.05  0.00  0.00  0.95  0.00  0.00  0.00  0.62  0.00
  GQ43                    1.00   0.05  0.00  0.00  0.01  0.94  0.00  0.00  0.86  0.00
  GQ44                    1.00   0.05  0.00  0.00  0.95  0.00  0.00  0.00  0.28  0.00
  GQ45                    1.00   0.05  0.00  0.00  0.36  0.59  0.00  0.00  0.86  0.00
  GQ46                    1.00   0.05  0.00  0.00  0.81  0.15  0.00  0.00  0.41  0.00
  GQ47                    1.00   0.05  0.00  0.00  0.95  0.00  0.00  0.00  0.86  0.00
  GQ48                    1.00   0.05  0.00  0.00  0.95  0.00  0.00  0.00  0.86  0.00
  GQ49                    1.00   0.05  0.00  0.00  0.93  0.02  0.00  0.00  0.86  0.00
  GQ50                    1.00   0.05  0.00  0.00  0.95  0.00  0.00  0.00  0.86  0.00
  GQ51                    1.00   0.05  0.00  0.00  0.01  0.94  0.00  0.00  0.56  0.00
  GQ52                    1.00   0.05  0.00  0.00  0.95  0.00  0.00  0.00  0.67  0.00
  GQ53                    1.00   0.05  0.00  0.00  0.95  0.00  0.00  0.00  0.72  0.00
  GQ54                    1.00   0.05  0.00  0.00  0.95  0.00  0.00  0.00  0.86  0.00
  GQ55                    1.00   0.05  0.00  0.00  0.95  0.00  0.00  0.00  0.86  0.00
  GQ56                    1.00   0.05  0.00  0.00  0.00  0.95  0.00  0.00  0.57  0.00
  GQ57                    1.00   0.05  0.00  0.00  0.95  0.00  0.00  0.00  0.86  0.00
  GQ58                    1.00   0.05  0.00  0.00  0.95  0.00  0.00  0.00  0.86  0.00
  GQ59                    1.00   0.05  0.00  0.00  0.95  0.00  0.00  0.00  0.71  0.00
  GQ60                    1.00   0.05  0.00  0.00  0.95  0.00  0.00  0.00  0.31  0.00
  GQ61                    1.00   0.05  0.00  0.00  0.95  0.00  0.00  0.00  0.86  0.00
  GQ62                    1.00   0.05  0.00  0.00  0.95  0.00  0.00  0.00  0.86  0.00
  GQ63                    1.00   0.05  0.00  0.00  0.93  0.02  0.00  0.00  0.86  0.00
  GQ64                    1.00   0.05  0.00  0.00  0.00  0.95  0.00  0.00  0.86  0.00
  GQ65                    1.00   0.05  0.00  0.00  0.95  0.00  0.00  0.00  0.86  0.00
  GQ66                    1.00   0.05  0.00  0.00  0.95  0.00  0.00  0.00  0.86  0.00
  GQ67                    1.00   0.05  0.00  0.00  0.95  0.00  0.00  0.00  0.23  0.00
  GQ68                    1.00   0.05  0.00  0.00  0.95  0.00  0.00  0.00  0.86  0.00
  GQ69                    1.00   0.05  0.00  0.00  0.92  0.03  0.00  0.00  0.86  0.00
  GQ70                    1.00   0.05  0.00  0.00  0.01  0.94  0.00  0.00  0.10  0.00
  GQ71                    1.00   0.05  0.00  0.00  0.00  0.95  0.00  0.00  0.06  0.00
  GQ72                    1.00   0.05  0.00  0.00  0.00  0.95  0.00  0.00  0.13  0.00
  GQ73                    1.00   0.05  0.00  0.00  0.00  0.95  0.00  0.00  0.11  0.00
  GQ74                    1.00   0.05  0.00  0.00  0.85  0.10  0.00  0.00  0.86  0.00
  GQ75                    1.00   0.05  0.00  0.00  0.95  0.00  0.00  0.00  0.86  0.00
  GQ76                    1.00   0.05  0.00  0.00  0.00  0.95  0.00  0.00  0.08  0.00
  GQ77                    1.00   0.05  0.95  0.00  0.00  0.00  0.00  0.00  0.00  0.00
  GQ78                    1.00   0.05  0.00  0.00  0.95  0.00  0.00  0.00  0.86  0.00
  GQ79                    1.00   0.05  0.00  0.00  0.95  0.00  0.00  0.00  0.23  0.00
  GQ80                    1.00   0.05  0.00  0.00  0.95  0.00  0.00  0.00  0.35  0.00
  GQ81                    1.00   0.05  0.00  0.00  0.95  0.00  0.00  0.00  0.00  0.00
  GQ82                    1.00   0.05  0.00  0.00  0.89  0.07  0.00  0.00  0.85  0.00
  GQ83                    1.00   0.05  0.00  0.00  0.00  0.95  0.00  0.00  0.86  0.00
  GQ84                    1.00   0.05  0.00  0.00  0.00  0.95  0.00  0.00  0.85  0.00
  GQ85                    1.00   0.05  0.00  0.00  0.95  0.00  0.00  0.00  0.56  0.00
  GQ86                    1.00   0.05  0.00  0.00  0.94  0.01  0.00  0.00  0.86  0.00
  GQ87                    1.00   0.05  0.00  0.00  0.95  0.00  0.00  0.00  0.85  0.00
  GQ88                    1.00   0.05  0.00  0.00  0.95  0.00  0.00  0.00  0.85  0.00
  GQ89                    1.00   0.05  0.00  0.00  0.95  0.00  0.00  0.00  0.85  0.00
  GQ90                    1.00   0.05  0.00  0.00  0.91  0.04  0.00  0.00  0.85  0.00
  GQ91                    1.00   0.05  0.00  0.00  0.95  0.00  0.00  0.00  0.85  0.00
  GQ92                    1.00   0.05  0.00  0.00  0.79  0.16  0.00  0.00  0.00  0.00
  GQ93                    1.00   0.05  0.00  0.00  0.95  0.00  0.00  0.00  0.85  0.00
  GQ94                    1.00   0.05  0.00  0.00  0.26  0.70  0.00  0.00  0.00  0.00
  GQ95                    1.00   0.05  0.00  0.00  0.95  0.00  0.00  0.00  0.86  0.00
  GQ96                    1.00   0.05  0.00  0.00  0.95  0.00  0.00  0.00  0.14  0.00
  GQ97                    1.00   0.05  0.00  0.00  0.01  0.95  0.00  0.00  0.07  0.00
  GQ98                    1.00   0.05  0.00  0.00  0.95  0.00  0.00  0.00  0.85  0.00
  GQ99                    1.00   0.05  0.00  0.00  0.95  0.00  0.00  0.00  0.86  0.00
  GQ100                   1.00   0.05  0.00  0.00  0.01  0.95  0.00  0.00  0.00  0.00
  GQ101                   1.00   0.05  0.00  0.00  0.94  0.02  0.00  0.00  0.85  0.00
  GQ102                   1.00   0.05  0.00  0.00  0.91  0.04  0.00  0.00  0.86  0.00
  GQ103                   1.00   0.05  0.00  0.00  0.95  0.00  0.00  0.00  0.86  0.00
  GQ104                   1.00   0.05  0.00  0.00  0.94  0.01  0.00  0.00  0.86  0.00
  GQ105                   1.00   0.05  0.00  0.00  0.95  0.00  0.00  0.00  0.21  0.00
  GQ106                   1.00   0.05  0.00  0.00  0.94  0.02  0.00  0.00  0.86  0.00
  GQ107                   1.00   0.05  0.00  0.00  0.71  0.24  0.00  0.00  0.86  0.00
  GQ108                   1.00   0.05  0.00  0.00  0.95  0.00  0.00  0.00  0.26  0.00
  GQ109                   1.00   0.05  0.00  0.00  0.85  0.11  0.00  0.00  0.84  0.00
  GQ110                   1.00   0.05  0.00  0.00  0.94  0.01  0.00  0.00  0.86  0.00
  GQ111                   1.00   0.05  0.00  0.00  0.94  0.02  0.00  0.00  0.86  0.00
  GQ112                   1.00   0.05  0.00  0.00  0.01  0.95  0.00  0.00  0.85  0.00
  GQ113                   1.00   0.05  0.00  0.00  0.00  0.95  0.00  0.00  0.81  0.00
  GQ114                   1.00   0.05  0.00  0.00  0.95  0.00  0.00  0.00  0.23  0.00
  GQ115                   1.00   0.05  0.00  0.00  0.94  0.02  0.00  0.00  0.86  0.00
  GQ116                   1.00   0.05  0.00  0.00  0.95  0.00  0.00  0.00  0.86  0.00
  GQ117                   1.00   0.05  0.00  0.00  0.00  0.95  0.00  0.00  0.00  0.00
  GQ118                   1.00   0.05  0.00  0.00  0.05  0.91  0.00  0.00  0.86  0.00
  GQ119                   1.00   0.05  0.00  0.00  0.53  0.42  0.00  0.00  0.85  0.00
  GQ120                   1.00   0.05  0.12  0.00  0.83  0.00  0.00  0.00  0.00  0.00
  GQ121                   1.00   0.05  0.00  0.00  0.95  0.00  0.00  0.00  0.24  0.00
  GQ122                   1.00   0.05  0.00  0.00  0.85  0.10  0.00  0.00  0.85  0.00
  GQ123                   1.00   0.05  0.00  0.00  0.84  0.11  0.00  0.00  0.85  0.00
  GQ124                   1.00   0.05  0.00  0.00  0.95  0.00  0.00  0.00  0.86  0.00
  GQ125                   1.00   0.05  0.00  0.00  0.94  0.01  0.00  0.00  0.86  0.00
  GQ126                   1.00   0.05  0.00  0.00  0.95  0.00  0.00  0.00  0.86  0.00
  GQ127                   1.00   0.05  0.00  0.00  0.95  0.00  0.00  0.00  0.74  0.00
  GQ128                   1.00   0.05  0.00  0.00  0.01  0.94  0.00  0.00  0.66  0.00
  GQ129                   1.00   0.05  0.00  0.00  0.95  0.00  0.00  0.00  0.30  0.00
  GQ130                   1.00   0.05  0.00  0.00  0.54  0.42  0.00  0.00  0.30  0.00
  GQ131                   1.00   0.05  0.00  0.00  0.95  0.00  0.00  0.00  0.86  0.00
  
  
  *************************
  Conduit Surcharge Summary
  *************************
  
  ----------------------------------------------------------------------------
                                                           Hours        Hours 
                         --------- Hours Full --------   Above Full   Capacity
  Conduit                Both Ends  Upstream  Dnstream   Normal Flow   Limited
  ----------------------------------------------------------------------------
  GQ4                         2.46      2.46      4.25      0.01         0.01
  GQ5                         0.01      0.01      4.16      0.01         0.01
  GQ7                         0.01      0.01      1.12      0.01         0.01
  GQ9                         0.01      0.01      4.48      0.01         0.01
  GQ10                        3.16      3.16      4.55      0.23         0.01
  GQ12                        0.01      0.01      3.98      0.01         0.01
  GQ13                        0.01      0.01      1.87      0.01         0.01
  GQ18                        0.01      0.01      4.06      4.11         0.01
  GQ24                        0.01      0.01      4.38      0.01         0.01
  GQ27                        0.01      0.01      4.01      0.01         0.01
  GQ28                        0.01      0.01      4.20      0.01         0.01
  GQ29                        3.91      3.91      4.20      0.01         0.01
  GQ30                        4.01      4.01      4.29      0.01         0.01
  GQ31                        0.01      0.01      4.59      0.01         0.01
  GQ33                        0.01      0.01      4.59      0.01         0.01
  GQ37                        0.01      0.01      4.46      0.01         0.01
  GQ38                        0.01      0.01      4.46      0.01         0.01
  GQ39                        0.01      0.01      3.98      0.01         0.01
  GQ41                        0.01      0.01      4.17      0.01         0.01
  GQ42                        0.01      0.01      4.24      0.01         0.01
  GQ44                        3.57      3.57      4.06      0.01         0.01
  GQ45                        0.01      0.01      0.66      0.01         0.01
  GQ46                        0.66      0.66      3.57      0.01         0.01
  GQ47                        0.01      0.01      4.27      0.01         0.01
  GQ48                        0.01      0.01      4.35      0.01         0.01
  GQ49                        0.01      0.01      4.35      0.01         0.01
  GQ52                        0.01      0.01      3.91      0.01         0.01
  GQ53                        0.01      0.01      4.27      0.01         0.01
  GQ54                        0.01      0.01      4.38      0.01         0.01
  GQ55                        0.01      0.01      4.38      0.01         0.01
  GQ58                        0.01      0.01      4.08      0.01         0.01
  GQ59                        0.01      0.01      4.08      0.01         0.01
  GQ60                        0.01      0.01      0.38      0.01         0.01
  GQ61                        0.01      0.01      3.45      0.01         0.01
  GQ62                        0.01      0.01      3.58      0.01         0.01
  GQ63                        0.01      0.01      3.69      0.01         0.01
  GQ66                        0.01      0.01      3.70      0.01         0.01
  GQ67                        3.48      3.48      3.59      0.01         0.01
  GQ68                        0.01      0.01      3.92      0.01         0.01
  GQ69                        0.01      0.01      4.25      0.01         0.01
  GQ75                        0.01      0.01      3.91      0.01         0.01
  GQ78                        0.01      0.01      4.42      0.01         0.01
  GQ79                        0.01      0.01      4.42      0.01         0.01
  GQ80                        0.01      0.01      4.07      0.01         0.01
  GQ81                        3.98      4.07      3.98      4.16         1.37
  GQ82                        0.01      0.01      3.98      0.01         0.01
  GQ85                        0.01      0.01      4.63      0.01         0.01
  GQ86                        0.01      0.01      4.29      0.01         0.01
  GQ87                        0.01      0.01      4.29      0.01         0.01
  GQ88                        0.01      0.01      4.32      0.01         0.01
  GQ89                        0.01      0.01      4.01      0.01         0.01
  GQ90                        0.01      0.01      3.84      0.01         0.01
  GQ91                        0.01      0.01      4.11      0.01         0.01
  GQ95                        0.01      0.01      4.40      0.01         0.01
  GQ98                        0.01      0.01      4.23      0.01         0.01
  GQ99                        0.01      0.01      3.64      0.01         0.01
  GQ101                       0.01      0.01      4.11      0.01         0.01
  GQ102                       0.01      0.01      4.20      0.01         0.01
  GQ103                       0.01      0.01      4.32      0.01         0.01
  GQ104                       0.01      0.01      4.32      0.01         0.01
  GQ105                       4.14      4.14      4.20      3.75         0.01
  GQ106                       0.01      0.01      4.19      0.01         0.01
  GQ107                       0.01      0.01      4.19      0.01         0.01
  GQ108                       3.92      3.92      4.14      0.01         0.01
  GQ110                       0.01      0.01      3.91      0.01         0.01
  GQ111                       0.01      0.01      4.11      0.01         0.01
  GQ114                       0.01      0.01      4.35      0.01         0.01
  GQ116                       0.01      0.01      4.28      0.01         0.01
  GQ119                       0.01      0.01      4.36      0.01         0.01
  GQ120                       0.01      0.01      4.30      0.01         0.01
  GQ121                       4.18      4.18      4.36      0.01         0.01
  GQ122                       0.01      0.01      4.18      0.01         0.01
  GQ123                       0.01      0.01      4.20      0.01         0.01
  GQ125                       0.01      0.01      4.11      0.01         0.01
  GQ126                       0.01      0.01      4.11      0.01         0.01
  GQ129                       1.12      1.12      4.38      0.01         0.01
  GQ130                       1.55      1.55      4.74      0.01         0.01
  GQ131                       0.01      0.01      4.61      0.01         0.01
  

  Analysis begun on:  Wed Mar 29 19:37:36 2023
  Analysis ended on:  Wed Mar 29 19:37:47 2023
  Total elapsed time: 00:00:11