
  OWA STORM WATER MANAGEMENT MODEL - VERSION v5.1.14 (OWA 2022-07-31)
  --------------------------------------------------------------

  INP file created by DSDAConvertToSwmmTools 
  version 0.0.1 EcoVista 
  Title/Notes: 
  
  
  *********************************************************
  NOTE: The summary statistics displayed in this report are
  based on results found at every computational time step,  
  not just on results from each reporting time step.
  *********************************************************
  
  ****************
  Analysis Options
  ****************
  Flow Units ............... CMS
  Process Models:
    Rainfall/Runoff ........ YES
    RDII ................... NO
    Snowmelt ............... NO
    Groundwater ............ NO
    Flow Routing ........... YES
    Ponding Allowed ........ NO
    Water Quality .......... NO
  Infiltration Method ...... GREEN_AMPT
  Flow Routing Method ...... DYNWAVE
  Surcharge Method ......... EXTRAN
  Starting Date ............ 07/15/2020 00:00:00
  Ending Date .............. 07/15/2020 14:00:00
  Antecedent Dry Days ...... 0.0
  Report Time Step ......... 00:30:00
  Wet Time Step ............ 00:05:00
  Dry Time Step ............ 01:00:00
  Routing Time Step ........ 30.00 sec
  Variable Time Step ....... YES
  Maximum Trials ........... 8
  Number of Threads ........ 1
  Head Tolerance ........... 0.001500 m
  
  
  **************************        Volume         Depth
  Runoff Quantity Continuity     hectare-m            mm
  **************************     ---------       -------
  Total Precipitation ......       137.480        34.400
  Evaporation Loss .........         4.886         1.223
  Infiltration Loss ........        36.741         9.193
  Surface Runoff ...........        88.989        22.267
  Final Storage ............         6.950         1.739
  Continuity Error (%) .....        -0.062
  
  
  **************************        Volume        Volume
  Flow Routing Continuity        hectare-m      10^6 ltr
  **************************     ---------     ---------
  Dry Weather Inflow .......         0.000         0.000
  Wet Weather Inflow .......        88.942       889.427
  Groundwater Inflow .......         0.000         0.000
  RDII Inflow ..............         0.000         0.000
  External Inflow ..........         0.000         0.000
  External Outflow .........         8.460        84.600
  Flooding Loss ............        79.091       790.921
  Evaporation Loss .........         0.000         0.000
  Exfiltration Loss ........         0.000         0.000
  Initial Stored Volume ....         0.000         0.000
  Final Stored Volume ......         1.236        12.360
  Continuity Error (%) .....         0.174
  
  
  *************************
  Highest Continuity Errors
  *************************
  Node jd51 (6.12%)
  Node jd64 (4.97%)
  Node jd59 (4.92%)
  Node jd31 (4.47%)
  Node jd55 (4.11%)
  
  
  ***************************
  Time-Step Critical Elements
  ***************************
  Link GQ73 (97.45%)
  
  
  ********************************
  Highest Flow Instability Indexes
  ********************************
  Link GQ67 (33)
  Link GQ29 (12)
  Link GQ114 (8)
  Link GQ121 (5)
  Link GQ46 (4)
  
  
  *************************
  Routing Time Step Summary
  *************************
  Minimum Time Step           :     1.56 sec
  Average Time Step           :     8.75 sec
  Maximum Time Step           :    30.00 sec
  Percent in Steady State     :     0.00
  Average Iterations per Step :     4.47
  Percent Not Converging      :    15.45
  
  
  ***************************
  Subcatchment Runoff Summary
  ***************************
  
  ------------------------------------------------------------------------------------------------------------------------------
                            Total      Total      Total      Total     Imperv       Perv      Total       Total     Peak  Runoff
                           Precip      Runon       Evap      Infil     Runoff     Runoff     Runoff      Runoff   Runoff   Coeff
  Subcatchment                 mm         mm         mm         mm         mm         mm         mm    10^6 ltr      CMS
  ------------------------------------------------------------------------------------------------------------------------------
  1                         34.40       0.00       0.73      19.27      13.49       0.00      13.49        5.34     0.51   0.392
  2                         34.40       0.00       1.31       7.32      23.79       0.00      23.79       21.51     2.07   0.692
  3                         34.40       0.00       1.36       6.28      24.86       0.00      24.86        9.95     0.96   0.723
  4                         34.40       0.00       1.41       5.39      25.73       0.00      25.73        2.16     0.21   0.748
  5                         34.40       0.00       1.24       8.76      22.76       0.00      22.76        2.81     0.27   0.662
  6                         34.40       0.00       1.19       9.86      21.82       0.00      21.82        2.03     0.19   0.634
  7                         34.40       0.00       1.24       8.80      22.57       0.00      22.57        9.84     0.95   0.656
  8                         34.40       0.00       1.57       1.93      28.68       0.00      28.68        3.99     0.39   0.834
  9                         34.40       0.00       1.62       0.96      29.55       0.00      29.55        3.46     0.33   0.859
  10                        34.40       0.00       1.40       5.59      25.48       0.00      25.48        5.74     0.55   0.741
  11                        34.40       0.00       1.51       3.29      27.45       0.00      27.45       13.61     1.31   0.798
  12                        34.40       0.00       1.19       9.89      21.69       0.00      21.69       10.58     1.02   0.631
  13                        34.40       0.00       1.49       3.71      27.09       0.00      27.09       12.25     1.18   0.788
  14                        34.40       0.00       1.49       3.75      27.13       0.00      27.13        5.12     0.49   0.789
  15                        34.40       0.00       1.38       6.05      25.06       0.00      25.06        8.47     0.82   0.729
  16                        34.40       0.00       1.43       5.00      25.97       0.00      25.97        7.67     0.74   0.755
  17                        34.40       0.00       1.34       6.87      24.34       0.00      24.34       10.19     0.98   0.708
  18                        34.40       0.00       1.54       2.71      27.96       0.00      27.96       11.54     1.11   0.813
  19                        34.40       0.00       1.53       2.83      27.83       0.00      27.83        6.26     0.60   0.809
  20                        34.40       0.00       1.52       3.02      27.56       0.00      27.56       14.79     1.42   0.801
  21                        34.40       0.00       1.62       1.01      29.43       0.00      29.43        9.23     0.89   0.855
  22                        34.40       0.00       1.59       1.62      28.87       0.00      28.87        3.55     0.34   0.839
  23                        34.40       0.00       1.46       4.21      26.60       0.00      26.60       15.23     1.47   0.773
  24                        34.40       0.00       1.41       5.25      25.67       0.00      25.67        4.55     0.44   0.746
  25                        34.40       0.00       1.51       3.23      27.56       0.00      27.56        5.58     0.54   0.801
  26                        34.40       0.00       1.29       7.85      23.36       0.00      23.36        8.20     0.79   0.679
  27                        34.40       0.00       1.54       2.58      27.95       0.00      27.95       11.81     1.14   0.812
  28                        34.40       0.00       1.58       1.90      28.60       0.00      28.60       13.52     1.30   0.831
  29                        34.40       0.00       1.41       5.34      25.74       0.00      25.74        6.01     0.58   0.748
  30                        34.40       0.00       1.61       1.16      29.45       0.00      29.45        2.11     0.20   0.856
  31                        34.40       0.00       1.63       0.72      29.71       0.00      29.71        6.55     0.63   0.864
  32                        34.40       0.00       1.59       1.53      28.98       0.00      28.98       12.52     1.21   0.842
  33                        34.40       0.00       1.61       1.12      29.32       0.00      29.32       10.33     1.00   0.852
  34                        34.40       0.00       1.50       3.48      27.29       0.00      27.29        8.00     0.77   0.793
  35                        34.40       0.00       1.54       2.59      28.05       0.00      28.05       11.64     1.12   0.816
  36                        34.40       0.00       1.27       8.19      23.22       0.00      23.22        9.14     0.88   0.675
  37                        34.40       0.00       1.58       1.86      28.70       0.00      28.70        6.37     0.61   0.834
  38                        34.40       0.00       1.48       3.89      26.95       0.00      26.95       10.28     0.99   0.783
  39                        34.40       0.00       1.34       6.84      24.39       0.00      24.39       10.30     0.99   0.709
  40                        34.40       0.00       1.49       3.72      27.09       0.00      27.09        6.19     0.60   0.788
  41                        34.40       0.00       1.52       3.03      27.75       0.00      27.75        5.47     0.53   0.807
  42                        34.40       0.00       1.52       3.06      27.55       0.00      27.55        6.80     0.66   0.801
  43                        34.40       0.00       1.28       8.04      23.26       0.00      23.26       18.38     1.77   0.676
  44                        34.40       0.00       1.36       6.27      24.78       0.00      24.78       11.98     1.15   0.720
  45                        34.40       0.00       1.28       7.98      23.34       0.00      23.34       16.89     1.62   0.679
  46                        34.40       0.00       1.24       8.89      22.64       0.00      22.64       11.32     1.09   0.658
  47                        34.40       0.00       1.30       7.61      23.66       0.00      23.66       27.59     2.65   0.688
  48                        34.40       0.00       1.55       2.38      28.10       0.00      28.10       16.31     1.57   0.817
  49                        34.40       0.00       1.42       5.10      25.74       0.00      25.74       17.43     1.68   0.748
  50                        34.40       0.00       1.57       1.94      28.38       0.00      28.38       11.16     1.07   0.825
  51                        34.40       0.00       1.51       3.34      27.20       0.00      27.20        5.09     0.49   0.791
  52                        34.40       0.00       0.73      19.30      13.49       0.00      13.49       13.85     1.32   0.392
  53                        34.40       0.00       1.06      12.53      19.46       0.00      19.46       20.73     1.99   0.566
  54                        34.40       0.00       1.31       7.41      23.88       0.00      23.88        5.82     0.56   0.694
  55                        34.40       0.00       0.75      18.94      13.80       0.00      13.80       10.89     1.04   0.401
  56                        34.40       0.00       0.28      28.57       5.28       0.00       5.28        4.31     0.41   0.154
  57                        34.40       0.00       1.48       3.83      26.85       0.00      26.85       22.31     2.15   0.781
  58                        34.40       0.00       1.37       6.08      25.04       0.00      25.04        4.12     0.40   0.728
  59                        34.40       0.00       1.34       6.75      24.53       0.00      24.53        3.12     0.30   0.713
  60                        34.40       0.00       0.50      24.04       9.31       0.00       9.31        2.67     0.25   0.271
  61                        34.40       0.00       0.78      18.29      14.30       0.00      14.30        5.39     0.52   0.416
  62                        34.40       0.00       1.09      11.97      19.83       0.00      19.83       23.24     2.23   0.576
  63                        34.40       0.00       1.48       3.79      26.81       0.00      26.81       51.85     4.97   0.779
  64                        34.40       0.00       1.11      11.57      20.30       0.00      20.30        4.36     0.42   0.590
  65                        34.40       0.00       1.51       3.36      27.21       0.00      27.21       18.30     1.76   0.791
  66                        34.40       0.00       1.19       9.95      21.56       0.00      21.56        5.49     0.53   0.627
  67                        34.40       0.00       1.11      11.55      20.36       0.00      20.36        6.58     0.63   0.592
  68                        34.40       0.00       1.33       6.99      24.27       0.00      24.27        2.70     0.26   0.705
  69                        34.40       0.00       0.78      18.31      14.44       0.00      14.44        4.62     0.44   0.420
  70                        34.40       0.00       1.10      11.76      20.04       0.00      20.04       16.49     1.59   0.583
  71                        34.40       0.00       1.36       6.43      24.75       0.00      24.75        3.04     0.29   0.719
  72                        34.40       0.00       1.43       4.91      26.09       0.00      26.09        3.25     0.31   0.758
  73                        34.40       0.00       1.30       7.68      23.71       0.00      23.71        3.94     0.38   0.689
  74                        34.40       0.00       1.24       8.93      22.60       0.00      22.60        4.86     0.47   0.657
  75                        34.40       0.00       1.37       6.09      25.05       0.00      25.05        3.61     0.35   0.728
  76                        34.40       0.00       1.44       4.62      26.37       0.00      26.37        2.55     0.25   0.767
  77                        34.40       0.00       1.54       2.65      28.04       0.00      28.04        3.03     0.29   0.815
  78                        34.40       0.00       1.49       3.77      27.05       0.00      27.05        2.97     0.29   0.786
  79                        34.40       0.00       0.65      20.96      12.04       0.00      12.04       12.77     1.22   0.350
  80                        34.40       0.00       1.23       9.08      22.34       0.00      22.34       13.98     1.35   0.649
  81                        34.40       0.00       1.25       8.68      22.69       0.00      22.69        9.89     0.95   0.660
  82                        34.40       0.00       1.19       9.77      21.74       0.00      21.74       19.93     1.92   0.632
  83                        34.40       0.00       1.49       3.61      27.24       0.00      27.24        3.33     0.32   0.792
  84                        34.40       0.00       1.41       5.34      25.67       0.00      25.67        3.06     0.30   0.746
  85                        34.40       0.00       1.66       0.26      30.17       0.00      30.17        2.81     0.27   0.877
  86                        34.40       0.00       1.53       2.90      27.82       0.00      27.82        4.10     0.40   0.809
  87                        34.40       0.00       1.63       0.74      29.66       0.00      29.66        3.90     0.38   0.862
  88                        34.40       0.00       1.46       4.29      26.64       0.00      26.64        2.55     0.25   0.775
  89                        34.40       0.00       1.53       2.77      27.97       0.00      27.97        5.39     0.52   0.813
  90                        34.40       0.00       1.67       0.01      30.44       0.00      30.44        0.35     0.03   0.885
  91                        34.40       0.00       1.39       5.76      25.17       0.00      25.17        5.49     0.53   0.732
  92                        34.40       0.00       1.54       2.68      28.02       0.00      28.02        3.50     0.34   0.815
  93                        34.40       0.00       1.25       8.54      22.87       0.00      22.87       11.70     1.13   0.665
  94                        34.40       0.00       1.13      11.14      20.76       0.00      20.76        1.45     0.14   0.603
  95                        34.40       0.00       1.67       0.04      30.36       0.00      30.36        0.66     0.06   0.882
  96                        34.40       0.00       1.35       6.66      24.57       0.00      24.57        3.00     0.29   0.714
  97                        34.40       0.00       1.63       0.73      29.74       0.00      29.74        2.95     0.29   0.864
  98                        34.40       0.00       1.35       6.50      24.72       0.00      24.72        3.05     0.29   0.719
  99                        34.40       0.00       0.67      20.58      12.41       0.00      12.41        4.61     0.44   0.361
  100                       34.40       0.00       0.75      19.04      13.78       0.00      13.78        3.54     0.34   0.401
  101                       34.40       0.00       0.76      18.66      14.09       0.00      14.09        6.91     0.66   0.410
  102                       34.40       0.00       1.24       8.75      22.71       0.00      22.71        5.54     0.53   0.660
  103                       34.40       0.00       0.42      25.82       7.74       0.00       7.74        2.81     0.27   0.225
  104                       34.40       0.00       0.28      28.60       5.23       0.00       5.23        5.07     0.48   0.152
  105                       34.40       0.00       1.37       6.11      25.06       0.00      25.06        3.28     0.32   0.729
  106                       34.40       0.00       0.74      19.07      13.71       0.00      13.71        3.35     0.32   0.399
  
  
  ******************
  Node Depth Summary
  ******************
  
  ---------------------------------------------------------------------------------
                                 Average  Maximum  Maximum  Time of Max    Reported
                                   Depth    Depth      HGL   Occurrence   Max Depth
  Node                 Type       Meters   Meters   Meters  days hr:min      Meters
  ---------------------------------------------------------------------------------
  jd1                  JUNCTION     0.10     0.19   273.19     0  04:00        0.19
  jd2                  JUNCTION     0.38     3.00   270.00     0  03:31        2.15
  jd3                  JUNCTION     2.82     3.00   266.00     0  02:03        3.00
  jd4                  JUNCTION     1.05     3.00   270.00     0  02:53        3.00
  jd5                  JUNCTION     0.07     0.14   274.14     0  04:00        0.14
  jd6                  JUNCTION     0.08     0.17   275.17     0  04:00        0.17
  jd7                  JUNCTION     0.28     0.49   264.59     0  04:00        0.49
  jd8                  JUNCTION     1.61     3.00   267.00     0  02:25        3.00
  jd9                  JUNCTION     1.20     3.00   268.00     0  02:25        3.00
  jd10                 JUNCTION     2.84     3.00   273.00     0  01:55        3.00
  jd11                 JUNCTION     0.07     0.15   282.15     0  04:00        0.15
  jd12                 JUNCTION     2.85     3.00   272.00     0  01:50        3.00
  jd13                 JUNCTION     0.09     0.19   289.19     0  04:00        0.19
  jd14                 JUNCTION     0.21     0.54   280.54     0  04:00        0.54
  jd15                 JUNCTION     0.21     0.46   278.46     0  04:00        0.46
  jd16                 JUNCTION     0.23     0.50   274.50     0  04:00        0.50
  jd17                 JUNCTION     2.02     3.00   278.80     0  02:17        3.00
  jd18                 JUNCTION     0.31     3.00   282.00     0  03:45        2.24
  jd19                 JUNCTION     0.86     3.00   270.00     0  03:02        3.00
  jd20                 JUNCTION     0.17     0.30   273.30     0  04:00        0.30
  jd21                 JUNCTION     2.82     3.00   273.00     0  02:00        3.00
  jd22                 JUNCTION     1.50     3.00   275.00     0  03:08        3.00
  jd23                 JUNCTION     0.18     0.42   278.42     0  04:00        0.42
  jd24                 JUNCTION     0.11     0.22   285.22     0  04:00        0.22
  jd25                 JUNCTION     0.18     0.39   279.39     0  04:00        0.39
  jd26                 JUNCTION     0.28     3.00   288.00     0  03:47        2.52
  jd27                 JUNCTION     0.16     0.36   291.36     0  04:00        0.36
  jd28                 JUNCTION     2.87     3.00   290.00     0  01:43        3.00
  jd29                 JUNCTION     0.08     0.15   299.15     0  04:00        0.15
  jd30                 JUNCTION     0.10     0.22   290.22     0  04:00        0.22
  jd31                 JUNCTION     0.99     3.00   275.00     0  02:18        1.37
  jd32                 JUNCTION     2.86     3.00   275.00     0  01:48        3.00
  jd33                 JUNCTION     0.14     0.31   289.31     0  04:00        0.31
  jd34                 JUNCTION     0.17     0.38   294.38     0  04:00        0.38
  jd35                 JUNCTION     2.89     3.00   292.00     0  01:35        3.00
  jd36                 JUNCTION     0.52     3.00   302.00     0  03:21        3.00
  jd37                 JUNCTION     0.49     3.00   306.00     0  03:22        3.00
  jd38                 JUNCTION     0.29     0.72   297.72     0  04:00        0.72
  jd39                 JUNCTION     2.82     3.00   297.00     0  02:02        3.00
  jd40                 JUNCTION     0.79     3.00   302.00     0  03:11        3.00
  jd41                 JUNCTION     2.76     3.00   296.00     0  02:29        3.00
  jd42                 JUNCTION     0.15     0.32   305.32     0  04:00        0.32
  jd43                 JUNCTION     0.71     3.00   300.00     0  03:11        3.00
  jd44                 JUNCTION     0.76     3.00   286.00     0  03:13        3.00
  jd45                 JUNCTION     2.84     3.00   282.00     0  01:55        3.00
  jd46                 JUNCTION     0.21     0.47   275.47     0  04:00        0.47
  jd47                 JUNCTION     0.12     0.25   315.25     0  04:00        0.25
  jd48                 JUNCTION     0.08     0.17   325.17     0  04:00        0.17
  jd49                 JUNCTION     0.20     0.42   289.42     0  04:00        0.42
  jd50                 JUNCTION     2.87     3.00   278.00     0  01:41        3.00
  jd51                 JUNCTION     2.74     3.00   313.00     0  02:33        3.00
  jd52                 JUNCTION     0.44     3.00   326.00     0  03:31        1.99
  jd53                 JUNCTION     0.53     3.00   325.00     0  03:26        2.81
  jd54                 JUNCTION     0.22     0.46   326.46     0  04:00        0.46
  jd55                 JUNCTION     1.43     3.00   325.00     0  03:31        3.00
  jd56                 JUNCTION     0.14     0.32   327.32     0  04:00        0.32
  jd59                 JUNCTION     2.71     3.00   320.80     0  02:38        3.00
  jd60                 JUNCTION     2.85     3.00   319.00     0  01:49        3.00
  jd61                 JUNCTION     0.11     0.23   329.23     0  04:00        0.23
  jd62                 JUNCTION     0.05     0.10   335.10     0  04:00        0.10
  jd63                 JUNCTION     0.05     0.11   324.11     0  04:00        0.11
  jd64                 JUNCTION     2.53     3.00   321.00     0  02:38        2.85
  jd65                 JUNCTION     1.46     3.00   307.00     0  02:28        3.00
  jd66                 JUNCTION     2.83     3.00   304.00     0  01:58        3.00
  jd69                 JUNCTION     0.18     0.37   333.37     0  04:00        0.37
  jd79                 JUNCTION     2.72     3.00   274.00     0  01:46        3.00
  jd80                 JUNCTION     2.11     3.00   279.00     0  02:10        3.00
  jd81                 JUNCTION     0.11     0.24   288.24     0  04:00        0.24
  jd83                 JUNCTION     2.89     3.00   323.00     0  01:32        3.00
  jd84                 JUNCTION     0.18     0.43   323.43     0  04:00        0.43
  jd85                 JUNCTION     2.84     3.00   324.00     0  01:55        3.00
  jd87                 JUNCTION     2.85     3.00   322.00     0  01:52        3.00
  jd89                 JUNCTION     0.12     0.26   324.26     0  04:00        0.26
  jd90                 JUNCTION     0.11     0.22   328.22     0  04:00        0.22
  jd92                 JUNCTION     0.11     0.23   326.23     0  04:00        0.23
  jd93                 JUNCTION     0.52     3.00   327.00     0  03:25        2.72
  jd94                 JUNCTION     0.23     2.33   328.53     0  03:50        1.06
  jd95                 JUNCTION     0.26     0.68   327.68     0  04:01        0.68
  jd96                 JUNCTION     2.86     3.00   308.00     0  01:47        3.00
  jd97                 JUNCTION     0.26     0.62   327.82     0  04:00        0.62
  jd98                 JUNCTION     0.14     0.31   329.31     0  04:00        0.31
  jd99                 JUNCTION     2.83     3.00   327.00     0  01:59        3.00
  jd101                JUNCTION     0.09     0.18   321.18     0  04:00        0.18
  jd102                JUNCTION     0.18     0.39   324.39     0  04:00        0.39
  jd103                JUNCTION     0.09     0.18   318.18     0  04:00        0.18
  jd106                JUNCTION     2.78     3.00   287.00     0  02:18        3.00
  jd107                JUNCTION     0.16     0.34   332.34     0  04:00        0.34
  jd108                JUNCTION     1.12     1.39   327.39     0  03:45        1.38
  jd109                JUNCTION     0.12     0.27   343.27     0  04:00        0.27
  jd110                JUNCTION     2.84     3.00   327.00     0  01:56        3.00
  jd111                JUNCTION     0.06     0.11   344.11     0  04:00        0.11
  jd112                JUNCTION     0.07     0.15   334.15     0  04:00        0.15
  jd113                JUNCTION     0.08     0.16   348.16     0  04:00        0.16
  jd114                JUNCTION     2.84     3.00   317.00     0  01:53        3.00
  jd117                JUNCTION     1.10     3.00   319.00     0  02:01        1.94
  jd118                JUNCTION     0.07     0.15   330.15     0  04:00        0.15
  jd120                JUNCTION     0.12     0.26   327.26     0  04:00        0.26
  jd121                JUNCTION     0.12     0.26   320.26     0  04:00        0.26
  jd122                JUNCTION     2.82     3.00   276.00     0  02:00        3.00
  jd123                JUNCTION     2.81     3.00   276.20     0  02:04        3.00
  jd124                JUNCTION     2.90     3.00   271.00     0  01:27        3.00
  jd125                JUNCTION     0.95     3.00   278.00     0  02:52        3.00
  jd126                JUNCTION     2.89     3.00   275.00     0  01:33        3.00
  jd135                JUNCTION     0.10     0.22   289.22     0  04:00        0.22
  jd136                JUNCTION     0.20     0.43   341.43     0  04:00        0.43
  psk1                 OUTFALL      0.07     0.15   279.15     0  04:00        0.15
  psk2                 OUTFALL      0.10     0.21   270.21     0  04:00        0.21
  psk3                 OUTFALL      0.23     0.50   271.50     0  04:00        0.50
  psk4                 OUTFALL      0.00     0.00   280.00     0  00:00        0.00
  psk5                 OUTFALL      0.10     0.19   263.19     0  04:00        0.19
  psk6                 OUTFALL      0.07     0.13   259.13     0  04:00        0.13
  psk7                 OUTFALL      0.28     0.49   262.49     0  04:00        0.49
  psk8                 OUTFALL      0.00     0.00   317.00     0  00:00        0.00
  
  
  *******************
  Node Inflow Summary
  *******************
  
  -------------------------------------------------------------------------------------------------
                                  Maximum  Maximum                  Lateral       Total        Flow
                                  Lateral    Total  Time of Max      Inflow      Inflow     Balance
                                   Inflow   Inflow   Occurrence      Volume      Volume       Error
  Node                 Type           CMS      CMS  days hr:min    10^6 ltr    10^6 ltr     Percent
  -------------------------------------------------------------------------------------------------
  jd1                  JUNCTION     0.510    0.812     0  04:00        5.34        8.69       0.073
  jd2                  JUNCTION     0.788    1.073     0  04:00        8.19        11.2       0.156
  jd3                  JUNCTION     0.947    2.529     0  04:00        9.83        31.5       1.281
  jd4                  JUNCTION     1.138    1.270     0  04:00        11.8        13.2       0.205
  jd5                  JUNCTION     0.334    0.565     0  04:00        3.46        6.04       0.018
  jd6                  JUNCTION     0.385    0.385     0  04:00        3.99        3.99       0.035
  jd7                  JUNCTION     0.195    2.006     0  04:00        2.03        31.3       0.104
  jd8                  JUNCTION     0.271    1.216     0  04:00        2.81        22.3       0.619
  jd9                  JUNCTION     0.208    1.275     0  04:00        2.16        20.8       0.124
  jd10                 JUNCTION     0.553    0.702     0  04:00        5.74         7.3       1.397
  jd11                 JUNCTION     0.817    0.817     0  04:00        8.47        8.47       0.026
  jd12                 JUNCTION     0.615    1.343     0  04:00        6.37        13.8       1.004
  jd13                 JUNCTION     1.114    1.114     0  04:00        11.5        11.5       0.033
  jd14                 JUNCTION     1.305    1.472     0  04:00        13.5        15.2       0.113
  jd15                 JUNCTION     0.538    1.227     0  04:00        5.58        12.3       0.340
  jd16                 JUNCTION     0.579    2.298     0  04:00        6.01        23.2       0.121
  jd17                 JUNCTION     1.209    2.809     0  04:00        12.5        34.9       1.430
  jd18                 JUNCTION     0.959    1.397     0  04:00        9.94        14.4       0.159
  jd19                 JUNCTION     0.891    1.612     0  04:00        9.24        20.2       0.103
  jd20                 JUNCTION     0.740    0.977     0  04:00        7.67        15.1       0.175
  jd21                 JUNCTION     0.343    2.345     0  04:00        3.55        29.7       1.142
  jd22                 JUNCTION     0.604    1.294     0  04:00        6.25        13.9       0.597
  jd23                 JUNCTION     0.597    1.712     0  04:00        6.19        17.3       0.087
  jd24                 JUNCTION     0.982    0.982     0  04:00        10.2        10.2       0.037
  jd25                 JUNCTION     0.772    1.120     0  04:00           8        11.6       0.115
  jd26                 JUNCTION     1.123    1.854     0  03:47        11.6        19.4       0.097
  jd27                 JUNCTION     1.154    1.820     0  04:00          12        19.9       0.116
  jd28                 JUNCTION     1.571    2.122     0  04:00        16.3        22.8       0.587
  jd29                 JUNCTION     0.632    0.632     0  04:00        6.54        6.54       0.003
  jd30                 JUNCTION     0.656    2.081     0  04:00         6.8        19.6       0.065
  jd31                 JUNCTION     0.439    0.922     0  04:00        4.55        9.92       4.681
  jd32                 JUNCTION     0.892    3.225     0  04:00        9.23          39       0.642
  jd33                 JUNCTION     0.879    1.499     0  04:00        9.13        15.3       0.048
  jd34                 JUNCTION     1.087    1.087     0  04:00        11.3        11.3       0.038
  jd35                 JUNCTION     0.992    2.892     0  04:00        10.3        34.8       0.376
  jd36                 JUNCTION     1.677    2.569     0  04:00        17.4        28.2       0.134
  jd37                 JUNCTION     1.766    1.766     0  04:00        18.4        18.4       0.090
  jd38                 JUNCTION     1.624    2.573     0  04:00        16.9        27.8       0.178
  jd39                 JUNCTION     1.126    3.629     0  04:00        11.7        48.6       1.057
  jd40                 JUNCTION     1.916    4.105     0  04:00        19.9        47.5       0.161
  jd41                 JUNCTION     1.347    4.716     0  04:00          14        56.3       3.925
  jd42                 JUNCTION     1.759    1.930     0  04:00        18.3        20.1       0.158
  jd43                 JUNCTION     1.986    3.587     0  04:00        20.7        36.3       0.179
  jd44                 JUNCTION     2.654    5.063     0  04:00        27.6        64.5       0.150
  jd45                 JUNCTION     1.070    3.295     0  04:00        11.2        42.2       0.773
  jd46                 JUNCTION     0.489    0.489     0  04:00        5.09        5.09       0.402
  jd47                 JUNCTION     1.586    1.586     0  04:00        16.5        16.5      -0.033
  jd48                 JUNCTION     0.439    0.439     0  04:00        4.62        4.62      -0.004
  jd49                 JUNCTION     2.147    2.147     0  04:00        22.3        22.3       0.104
  jd50                 JUNCTION     2.232    4.892     0  04:00        23.2        71.1       0.604
  jd51                 JUNCTION     0.468    2.152     0  04:00        4.86        22.4       6.520
  jd52                 JUNCTION     0.951    3.712     0  03:31        9.88        36.4       0.155
  jd53                 JUNCTION     0.528    2.491     0  03:22        5.48        28.8       0.084
  jd54                 JUNCTION     0.285    1.418     0  04:00        2.95        14.7       0.116
  jd55                 JUNCTION     0.520    1.794     0  04:00        5.38        17.8       4.283
  jd56                 JUNCTION     0.316    0.924     0  04:00        3.28        9.58       0.071
  jd59                 JUNCTION     0.313    1.554     0  04:00        3.25        15.7       5.172
  jd60                 JUNCTION     0.561    1.190     0  04:00        5.82        12.4       1.044
  jd61                 JUNCTION     0.629    0.707     0  04:00        6.58         7.4       0.055
  jd62                 JUNCTION     0.253    0.253     0  04:00        2.67        2.67      -0.006
  jd63                 JUNCTION     0.348    0.348     0  04:00        3.61        3.61       0.014
  jd64                 JUNCTION     0.293    0.723     0  04:00        3.03        7.49       5.235
  jd65                 JUNCTION     4.975    4.975     0  04:00        51.8        51.8       0.078
  jd66                 JUNCTION     0.657    1.907     0  04:00         6.9          20       1.609
  jd69                 JUNCTION     1.216    1.250     0  04:00        12.8        13.1       0.056
  jd79                 JUNCTION     1.182    2.058     0  03:45        12.2        21.8       0.813
  jd80                 JUNCTION     1.313    1.838     0  04:00        13.6        18.5       0.459
  jd81                 JUNCTION     0.997    0.997     0  04:00        10.3        10.3       0.013
  jd83                 JUNCTION     1.041    1.274     0  04:00        10.9        14.4       0.591
  jd84                 JUNCTION     1.323    1.323     0  04:00        13.8        13.8       0.038
  jd85                 JUNCTION     0.300    0.492     0  04:00        3.12        5.14       1.678
  jd87                 JUNCTION     0.246    0.593     0  04:00        2.55        6.19       1.211
  jd89                 JUNCTION     0.287    0.287     0  04:00        2.97        2.97       0.066
  jd90                 JUNCTION     0.293    0.293     0  04:00        3.03        3.03       0.020
  jd92                 JUNCTION     0.246    0.246     0  04:00        2.55        2.55       0.021
  jd93                 JUNCTION     0.529    1.108     0  04:00        5.49        11.9       0.140
  jd94                 JUNCTION     0.034    0.620     0  03:38       0.349        6.39       0.132
  jd95                 JUNCTION     0.064    0.582     0  03:50       0.662        6.05       0.145
  jd96                 JUNCTION     0.480    0.640     0  04:00        5.06        6.72       1.444
  jd97                 JUNCTION     0.518    0.518     0  04:00        5.38        5.38       0.023
  jd98                 JUNCTION     0.289    0.289     0  04:00           3           3       0.041
  jd99                 JUNCTION     0.139    0.372     0  04:00        1.45        4.74       1.207
  jd101                JUNCTION     0.379    0.756     0  04:00        3.94        7.83      -0.017
  jd102                JUNCTION     0.377    0.377     0  04:00         3.9         3.9       0.090
  jd103                JUNCTION     0.260    0.260     0  04:00         2.7         2.7       0.008
  jd106                JUNCTION     0.203    1.220     0  04:00        2.11        12.3       3.232
  jd107                JUNCTION     0.293    0.964     0  04:00        3.05          10       0.108
  jd108                JUNCTION     0.319    0.319     0  04:00        3.34        3.36       1.959
  jd109                JUNCTION     0.533    0.533     0  04:00        5.54        5.54       0.017
  jd110                JUNCTION     0.405    0.604     0  04:00         4.3        6.39       2.434
  jd111                JUNCTION     0.336    0.336     0  04:00        3.53        3.53      -0.001
  jd112                JUNCTION     0.396    1.099     0  04:00         4.1        11.5       0.031
  jd113                JUNCTION     0.266    0.266     0  04:00        2.81        2.81      -0.023
  jd114                JUNCTION     0.321    3.566     0  04:00        3.33        42.2       0.749
  jd117                JUNCTION     0.296    0.970     0  04:00        3.06        10.2       1.544
  jd118                JUNCTION     0.271    0.271     0  04:00         2.8         2.8      -0.003
  jd120                JUNCTION     0.338    0.338     0  04:00         3.5         3.5       0.024
  jd121                JUNCTION     0.417    0.417     0  04:00        4.36        4.36       0.043
  jd122                JUNCTION     0.991    3.733     0  04:00        10.3        48.5       1.168
  jd123                JUNCTION     1.019    3.229     0  04:00        10.6        49.6       1.422
  jd124                JUNCTION     1.468    2.541     0  04:00        15.2        37.9       0.151
  jd125                JUNCTION     1.425    3.100     0  04:00        14.8          45       0.076
  jd126                JUNCTION     2.066    2.842     0  04:00        21.5          30       0.337
  jd135                JUNCTION     0.528    0.528     0  04:00        5.47        5.47       0.015
  jd136                JUNCTION     0.438    0.704     0  04:00         4.6        7.41       0.095
  psk1                 OUTFALL      0.000    0.526     0  04:00           0        5.46       0.000
  psk2                 OUTFALL      0.000    1.555     0  04:00           0        14.5       0.000
  psk3                 OUTFALL      0.000    2.295     0  04:00           0        23.1       0.000
  psk4                 OUTFALL      0.000    0.000     0  00:00           0           0       0.000 ltr
  psk5                 OUTFALL      0.000    0.527     0  04:00           0        5.64       0.000
  psk6                 OUTFALL      0.000    0.433     0  04:00           0        4.63       0.000
  psk7                 OUTFALL      0.000    2.006     0  04:00           0        31.2       0.000
  psk8                 OUTFALL      0.000    0.000     0  00:00           0           0       0.000 ltr
  
  
  **********************
  Node Surcharge Summary
  **********************
  
  Surcharging occurs when water rises above the top of the highest conduit.
  ---------------------------------------------------------------------
                                               Max. Height   Min. Depth
                                   Hours       Above Crown    Below Rim
  Node                 Type      Surcharged         Meters       Meters
  ---------------------------------------------------------------------
  jd2                  JUNCTION        0.64          2.200        0.000
  jd3                  JUNCTION       11.95          2.200        0.000
  jd4                  JUNCTION        2.73          2.200        0.000
  jd8                  JUNCTION        7.59          2.200        0.000
  jd9                  JUNCTION        3.82          2.200        0.000
  jd10                 JUNCTION       12.07          2.400        0.000
  jd12                 JUNCTION       12.17          2.400        0.000
  jd17                 JUNCTION        8.26          2.200        0.000
  jd18                 JUNCTION        0.34          2.000        0.000
  jd19                 JUNCTION        2.12          2.200        0.000
  jd21                 JUNCTION       11.99          2.200        0.000
  jd22                 JUNCTION       11.79          2.400        0.000
  jd26                 JUNCTION        0.28          2.400        0.000
  jd28                 JUNCTION       12.28          2.400        0.000
  jd31                 JUNCTION       11.70          2.200        0.000
  jd32                 JUNCTION       12.19          2.200        0.000
  jd35                 JUNCTION       12.42          2.400        0.000
  jd36                 JUNCTION        0.90          2.400        0.000
  jd37                 JUNCTION        0.79          2.400        0.000
  jd39                 JUNCTION       11.96          2.000        0.000
  jd40                 JUNCTION        1.74          2.200        0.000
  jd41                 JUNCTION       11.52          1.000        0.000
  jd43                 JUNCTION        1.19          2.200        0.000
  jd44                 JUNCTION        1.39          2.000        0.000
  jd45                 JUNCTION       12.08          2.000        0.000
  jd50                 JUNCTION       12.31          2.200        0.000
  jd51                 JUNCTION       11.45          1.350        0.000
  jd52                 JUNCTION        0.66          1.500        0.000
  jd53                 JUNCTION        0.83          1.800        0.000
  jd55                 JUNCTION        1.76          1.500        0.000
  jd59                 JUNCTION       11.36          1.500        0.000
  jd60                 JUNCTION       12.19          2.400        0.000
  jd64                 JUNCTION       11.38          1.800        0.000
  jd65                 JUNCTION        4.16          2.400        0.000
  jd66                 JUNCTION       12.04          2.200        0.000
  jd79                 JUNCTION       12.24          2.400        0.000
  jd80                 JUNCTION        8.98          2.400        0.000
  jd83                 JUNCTION       12.47          2.400        0.000
  jd85                 JUNCTION       12.08          2.400        0.000
  jd87                 JUNCTION       12.13          2.400        0.000
  jd93                 JUNCTION        0.91          2.200        0.000
  jd94                 JUNCTION        0.28          1.532        0.668
  jd96                 JUNCTION       12.21          2.200        0.000
  jd99                 JUNCTION       12.02          2.400        0.000
  jd106                JUNCTION       11.70          2.000        0.000
  jd108                JUNCTION       12.16          0.391        1.609
  jd110                JUNCTION       12.07          2.000        0.000
  jd114                JUNCTION       12.12          2.000        0.000
  jd117                JUNCTION       11.97          2.200        0.000
  jd122                JUNCTION       11.99          2.200        0.000
  jd123                JUNCTION       11.93          2.200        0.000
  jd124                JUNCTION       12.55          2.400        0.000
  jd125                JUNCTION        2.66          2.200        0.000
  jd126                JUNCTION       12.44          2.400        0.000
  
  
  *********************
  Node Flooding Summary
  *********************
  
  Flooding refers to all water that overflows a node, whether it ponds or not.
  --------------------------------------------------------------------------
                                                             Total   Maximum
                                 Maximum   Time of Max       Flood    Ponded
                        Hours       Rate    Occurrence      Volume     Depth
  Node                 Flooded       CMS   days hr:min    10^6 ltr    Meters
  --------------------------------------------------------------------------
  jd2                     0.01     0.147      0  03:31       0.002     0.000
  jd3                    11.95     2.529      0  04:00      31.129     0.000
  jd4                     2.03     0.760      0  04:00       2.716     0.000
  jd8                     1.44     0.151      0  03:50       0.591     0.000
  jd9                     1.35     0.330      0  04:00       1.310     0.000
  jd10                   12.07     0.702      0  04:00       7.201     0.000
  jd12                   12.16     1.343      0  04:00      13.674     0.000
  jd17                    3.85     1.979      0  04:00       9.984     0.000
  jd18                    0.01     0.235      0  03:45       0.003     0.000
  jd19                    1.07     0.544      0  04:00       1.540     0.000
  jd21                   11.70     2.344      0  04:00      29.029     0.000
  jd22                    1.10     0.471      0  04:00       1.311     0.000
  jd26                    0.01     0.153      0  03:47       0.001     0.000
  jd28                   12.28     2.122      0  04:00      22.663     0.000
  jd31                    0.01     0.652      0  02:18       0.008     0.000
  jd32                   12.19     3.225      0  04:00      38.738     0.000
  jd35                   12.42     2.892      0  04:00      34.624     0.000
  jd36                    0.75     0.470      0  04:00       0.964     0.000
  jd37                    0.70     0.279      0  03:22       0.512     0.000
  jd39                   11.96     3.629      0  04:00      48.138     0.000
  jd40                    1.30     1.543      0  04:00       5.470     0.000
  jd41                   11.52     4.716      0  04:00      54.141     0.000
  jd43                    1.10     1.755      0  04:00       5.302     0.000
  jd44                    0.98     1.228      0  03:13       3.077     0.000
  jd45                   12.08     3.295      0  04:00      41.924     0.000
  jd50                   12.31     4.892      0  04:00      70.705     0.000
  jd51                   11.44     2.152      0  04:00      21.016     0.000
  jd52                    0.01     1.097      0  03:31       0.014     0.000
  jd53                    0.02     0.349      0  03:26       0.005     0.000
  jd55                    0.62     1.335      0  04:00       2.421     0.000
  jd59                   11.36     1.554      0  04:00      14.954     0.000
  jd60                   12.18     1.190      0  04:00      12.284     0.000
  jd64                    0.01     0.234      0  02:38       0.005     0.000
  jd65                    3.96     3.881      0  04:00      20.157     0.000
  jd66                   12.03     1.907      0  04:00      19.695     0.000
  jd79                    7.65     1.821      0  03:45      14.206     0.000
  jd80                    5.67     1.681      0  04:00      10.973     0.000
  jd83                   12.47     1.274      0  04:00      14.314     0.000
  jd85                   12.07     0.492      0  04:00       5.053     0.000
  jd87                   12.12     0.593      0  04:00       6.112     0.000
  jd93                    0.01     0.074      0  03:25       0.001     0.000
  jd96                   12.20     0.640      0  04:00       6.625     0.000
  jd99                   12.02     0.372      0  04:00       4.682     0.000
  jd106                  11.70     1.220      0  04:00      11.893     0.000
  jd110                  12.06     0.604      0  04:00       6.242     0.000
  jd114                  11.98     3.566      0  04:00      41.798     0.000
  jd117                   0.01     0.232      0  02:01       0.002     0.000
  jd122                  11.93     3.733      0  04:00      47.890     0.000
  jd123                  10.01     2.914      0  04:00      35.996     0.000
  jd124                  12.55     2.541      0  04:00      37.878     0.000
  jd125                   1.19     0.714      0  04:00       2.078     0.000
  jd126                  12.44     2.842      0  04:00      29.895     0.000
  
  
  ***********************
  Outfall Loading Summary
  ***********************
  
  -----------------------------------------------------------
                         Flow       Avg       Max       Total
                         Freq      Flow      Flow      Volume
  Outfall Node           Pcnt       CMS       CMS    10^6 ltr
  -----------------------------------------------------------
  psk1                  97.86     0.159     0.526       5.459
  psk2                  97.85     0.429     1.555      14.514
  psk3                  97.88     0.676     2.295      23.128
  psk4                   0.00     0.000     0.000       0.000
  psk5                  97.88     0.163     0.527       5.640
  psk6                  97.85     0.134     0.433       4.628
  psk7                  97.88     0.859     2.006      31.231
  psk8                   0.00     0.000     0.000       0.000
  -----------------------------------------------------------
  System                73.40     2.420     0.000      84.600
  
  
  ********************
  Link Flow Summary
  ********************
  
  -----------------------------------------------------------------------------
                                 Maximum  Time of Max   Maximum    Max/    Max/
                                  |Flow|   Occurrence   |Veloc|    Full    Full
  Link                 Type          CMS  days hr:min     m/sec    Flow   Depth
  -----------------------------------------------------------------------------
  GQ1                  CONDUIT     0.302     0  04:00      1.93    0.79    0.55
  GQ2                  CONDUIT     0.920     0  04:00      2.47    0.44    0.48
  GQ3                  CONDUIT     0.526     0  04:00      5.92    0.02    0.10
  GQ4                  CONDUIT     0.510     0  03:53      1.80    1.00    1.00
  GQ5                  CONDUIT     1.073     0  04:00      2.13    0.89    1.00
  GQ6                  CONDUIT     0.285     0  04:00      1.15    0.13    0.62
  GQ7                  CONDUIT     1.675     0  03:33      3.55    1.00    1.00
  GQ8                  CONDUIT     0.577     0  04:00      1.40    0.55    0.77
  GQ9                  CONDUIT     1.567     0  04:00      3.80    0.55    0.77
  GQ10                 CONDUIT     1.136     0  02:27      4.10    1.04    1.00
  GQ11                 CONDUIT     0.170     0  04:00      1.65    0.18    0.41
  GQ12                 CONDUIT     0.201     0  04:00      1.02    0.22    0.66
  GQ13                 CONDUIT     0.132     0  04:00      0.45    0.06    0.58
  GQ14                 CONDUIT     0.066     0  04:00      0.98    0.09    0.19
  GQ15                 CONDUIT     0.165     0  04:00      4.21    0.67    0.54
  GQ16                 CONDUIT     1.425     0  04:00      3.99    0.69    0.47
  GQ17                 CONDUIT     0.319     0  04:00      1.63    0.10    0.41
  GQ18                 CONDUIT     1.065     0  04:00      2.50    4.80    0.80
  GQ19                 CONDUIT     0.427     0  04:00      1.97    0.05    0.32
  GQ20                 CONDUIT     0.094     0  04:00      0.44    0.05    0.58
  GQ21                 CONDUIT     0.344     0  04:00      1.37    0.11    0.61
  GQ22                 CONDUIT     0.349     0  04:00      1.71    0.11    0.31
  GQ23                 CONDUIT     0.663     0  04:00      2.22    0.33    0.41
  GQ24                 CONDUIT     1.020     0  04:00      2.48    0.51    0.76
  GQ25                 CONDUIT     0.620     0  04:00      3.68    0.70    0.58
  GQ26                 CONDUIT     0.451     0  04:00      2.57    0.53    0.61
  GQ27                 CONDUIT     0.690     0  04:00      2.70    0.69    0.85
  GQ28                 CONDUIT     0.256     0  04:00      0.70    0.27    0.69
  GQ29                 CONDUIT     0.922     0  04:00      1.83    0.43    1.00
  GQ30                 CONDUIT     0.824     0  03:18      2.91    1.00    1.00
  GQ31                 CONDUIT     0.467     0  04:00      1.89    0.62    0.82
  GQ32                 CONDUIT     0.665     0  04:00      2.94    1.07    0.80
  GQ33                 CONDUIT     1.434     0  03:37      5.07    1.00    1.00
  GQ34                 CONDUIT     0.352     0  04:00      1.52    0.55    0.77
  GQ35                 CONDUIT     0.578     0  03:21      2.15    1.07    1.00
  GQ36                 CONDUIT     0.953     0  03:23      3.37    1.18    1.00
  GQ37                 CONDUIT     0.377     0  04:00      1.55    0.54    0.80
  GQ38                 CONDUIT     0.174     0  04:00      0.85    0.25    0.68
  GQ39                 CONDUIT     0.761     0  04:00      2.69    0.97    1.00
  GQ40                 CONDUIT     0.534     0  04:01      2.45    0.66    0.80
  GQ41                 CONDUIT     1.143     0  04:00      1.59    0.53    0.86
  GQ42                 CONDUIT     1.359     0  03:55      2.70    1.00    1.00
  GQ43                 CONDUIT     2.311     0  03:23      4.70    1.03    1.00
  GQ44                 CONDUIT     0.946     0  03:39      1.88    1.00    1.00
  GQ45                 CONDUIT     0.721     0  04:00      1.96    0.29    0.69
  GQ46                 CONDUIT     1.068     0  03:32      2.12    1.00    1.00
  GQ47                 CONDUIT     0.148     0  04:00      0.80    0.14    0.63
  GQ48                 CONDUIT     0.148     0  04:00      0.79    0.14    0.63
  GQ49                 CONDUIT     0.580     0  04:00      2.94    0.22    0.66
  GQ50                 CONDUIT     0.167     0  04:00      1.03    0.22    0.61
  GQ51                 CONDUIT     0.689     0  04:00      2.76    1.05    0.83
  GQ52                 CONDUIT     0.484     0  04:00      1.13    0.64    0.79
  GQ53                 CONDUIT     2.225     0  03:40      2.83    1.00    1.00
  GQ54                 CONDUIT     0.360     0  04:00      1.73    0.31    0.69
  GQ55                 CONDUIT     0.269     0  04:00      1.40    0.18    0.64
  GQ56                 CONDUIT     1.970     0  03:10      4.07    1.08    1.00
  GQ57                 CONDUIT     0.511     0  04:00      1.36    0.33    0.70
  GQ58                 CONDUIT     1.064     0  04:00      2.83    0.33    0.70
  GQ59                 CONDUIT     1.203     0  03:36      2.39    1.00    1.00
  GQ60                 CONDUIT     1.748     0  03:31      1.19    0.42    1.00
  GQ61                 CONDUIT     0.231     0  04:00      0.38    0.03    0.56
  GQ62                 CONDUIT     0.483     0  04:00      0.46    0.05    0.57
  GQ63                 CONDUIT     1.103     0  04:00      0.97    0.03    0.56
  GQ64                 CONDUIT     0.078     0  04:00      1.29    0.06    0.27
  GQ65                 CONDUIT     0.034     0  04:00      0.33    0.06    0.40
  GQ66                 CONDUIT     0.138     0  04:00      0.52    0.04    0.57
  GQ67                 CONDUIT     0.723     0  03:59      0.64    0.50    1.00
  GQ68                 CONDUIT     0.691     0  04:00      1.26    0.22    0.66
  GQ69                 CONDUIT     1.249     0  04:00      3.16    0.45    0.73
  GQ70                 CONDUIT     0.433     0  04:00      7.69    0.06    0.17
  GQ71                 CONDUIT     0.527     0  04:00      5.61    0.13    0.24
  GQ72                 CONDUIT     2.006     0  04:00      5.27    0.48    0.49
  GQ73                 CONDUIT     1.555     0  04:00     12.55    0.10    0.21
  GQ74                 CONDUIT     0.282     0  04:00      1.32    0.05    0.33
  GQ75                 CONDUIT     0.350     0  04:00      0.70    0.10    0.61
  GQ76                 CONDUIT     2.295     0  04:00      5.87    0.50    0.50
  GQ77                 CONDUIT     0.000     0  00:00      0.00    0.00    0.23
  GQ78                 CONDUIT     0.884     0  03:45      3.13    0.97    1.00
  GQ79                 CONDUIT     0.237     0  04:00      1.08    0.51    0.75
  GQ80                 CONDUIT     0.525     0  04:00      1.86    0.86    1.00
  GQ81                 CONDUIT     0.456     0  10:22      1.61    2.89    1.00
  GQ82                 CONDUIT     0.480     0  04:00      2.28    0.33    0.70
  GQ83                 CONDUIT     0.517     0  04:00      2.85    0.33    0.61
  GQ84                 CONDUIT     1.090     0  04:00      4.22    0.86    0.86
  GQ85                 CONDUIT     0.233     0  04:00      0.90    0.40    0.86
  GQ86                 CONDUIT     0.141     0  04:00      0.83    0.06    0.58
  GQ87                 CONDUIT     0.051     0  04:00      0.29    0.07    0.59
  GQ88                 CONDUIT     0.347     0  04:00      1.67    0.31    0.69
  GQ89                 CONDUIT     0.287     0  04:00      1.33    0.38    0.71
  GQ90                 CONDUIT     0.293     0  04:00      1.42    0.29    0.69
  GQ91                 CONDUIT     0.246     0  04:00      1.19    0.30    0.69
  GQ92                 CONDUIT     0.597     0  04:05      1.77    0.86    0.93
  GQ93                 CONDUIT     0.711     0  04:11      1.62    0.61    1.00
  GQ94                 CONDUIT     1.108     0  04:00      2.20    1.31    1.00
  GQ95                 CONDUIT     0.160     0  04:00      0.54    0.04    0.57
  GQ96                 CONDUIT     0.518     0  03:50      1.35    0.88    0.81
  GQ97                 CONDUIT     0.289     0  04:00      1.94    0.52    0.52
  GQ98                 CONDUIT     0.233     0  04:00      1.00    0.33    0.77
  GQ99                 CONDUIT     0.524     0  04:00      0.64    0.03    0.56
  GQ100                CONDUIT     0.377     0  04:00      2.87    0.65    0.47
  GQ101                CONDUIT     0.260     0  04:00      1.34    0.19    0.65
  GQ102                CONDUIT     1.047     0  04:00      2.81    0.32    0.69
  GQ103                CONDUIT     0.456     0  04:00      1.82    0.70    0.83
  GQ104                CONDUIT     0.924     0  04:00      3.81    0.67    0.80
  GQ105                CONDUIT     0.388     0  02:04      0.77    1.23    1.00
  GQ106                CONDUIT     0.289     0  04:00      1.40    0.29    0.68
  GQ107                CONDUIT     1.091     0  04:00      3.89    0.98    1.00
  GQ108                CONDUIT     0.829     0  03:45      1.65    1.00    1.00
  GQ109                CONDUIT     0.212     0  04:00      1.32    0.29    0.68
  GQ110                CONDUIT     0.351     0  04:00      0.75    0.05    0.58
  GQ111                CONDUIT     0.316     0  04:00      1.53    0.29    0.68
  GQ112                CONDUIT     0.964     0  04:00      2.95    0.17    0.33
  GQ113                CONDUIT     0.533     0  04:00      3.75    0.40    0.50
  GQ114                CONDUIT     0.319     0  04:00      0.58    0.13    0.66
  GQ115                CONDUIT     0.138     0  04:00      0.94    0.02    0.19
  GQ116                CONDUIT     0.199     0  04:00      0.44    0.03    0.56
  GQ117                CONDUIT     0.704     0  04:00      4.34    0.44    0.36
  GQ118                CONDUIT     0.266     0  04:00      1.75    0.09    0.37
  GQ119                CONDUIT     2.298     0  03:32      4.57    1.00    1.00
  GQ120                CONDUIT     0.000     0  00:00      0.00    0.00    0.50
  GQ121                CONDUIT     0.970     0  04:00      1.93    0.69    1.00
  GQ122                CONDUIT     0.404     0  04:00      1.32    0.07    0.59
  GQ123                CONDUIT     0.271     0  04:00      1.47    0.13    0.62
  GQ124                CONDUIT     0.169     0  04:00      0.98    0.07    0.38
  GQ125                CONDUIT     0.338     0  04:00      1.57    0.38    0.71
  GQ126                CONDUIT     0.417     0  04:00      1.92    0.40    0.72
  GQ127                CONDUIT     0.819     0  04:16      1.71    1.05    1.00
  GQ128                CONDUIT     1.418     0  04:00      2.42    0.31    0.69
  GQ129                CONDUIT     1.313     0  03:26      2.61    1.00    1.00
  GQ130                CONDUIT     1.073     0  03:19      3.79    1.00    1.00
  GQ131                CONDUIT     0.776     0  04:00      2.81    0.90    0.95
  
  
  ***************************
  Flow Classification Summary
  ***************************
  
  -------------------------------------------------------------------------------------
                      Adjusted    ---------- Fraction of Time in Flow Class ---------- 
                       /Actual         Up    Down  Sub   Sup   Up    Down  Norm  Inlet 
  Conduit               Length    Dry  Dry   Dry   Crit  Crit  Crit  Crit  Ltd   Ctrl  
  -------------------------------------------------------------------------------------
  GQ1                     1.00   0.02  0.00  0.00  0.01  0.97  0.00  0.00  0.00  0.00
  GQ2                     1.00   0.02  0.00  0.00  0.03  0.95  0.00  0.00  0.93  0.00
  GQ3                     1.00   0.02  0.00  0.00  0.00  0.98  0.00  0.00  0.23  0.00
  GQ4                     1.00   0.02  0.00  0.00  0.98  0.00  0.00  0.00  0.56  0.00
  GQ5                     1.00   0.02  0.00  0.00  0.98  0.00  0.00  0.00  0.83  0.00
  GQ6                     1.00   0.02  0.00  0.00  0.98  0.00  0.00  0.00  0.93  0.00
  GQ7                     1.00   0.02  0.00  0.00  0.23  0.75  0.00  0.00  0.14  0.00
  GQ8                     1.00   0.02  0.00  0.00  0.98  0.00  0.00  0.00  0.92  0.00
  GQ9                     1.00   0.02  0.00  0.00  0.80  0.18  0.00  0.00  0.93  0.00
  GQ10                    1.00   0.02  0.00  0.00  0.65  0.33  0.00  0.00  0.61  0.00
  GQ11                    1.00   0.02  0.00  0.00  0.35  0.62  0.00  0.00  0.93  0.00
  GQ12                    1.00   0.02  0.00  0.00  0.97  0.01  0.00  0.00  0.93  0.00
  GQ13                    1.00   0.02  0.00  0.00  0.98  0.00  0.00  0.00  0.93  0.00
  GQ14                    1.00   0.02  0.00  0.00  0.98  0.00  0.00  0.00  0.00  0.00
  GQ15                    1.00   0.02  0.00  0.00  0.00  0.98  0.00  0.00  0.01  0.00
  GQ16                    1.00   0.02  0.00  0.00  0.00  0.98  0.00  0.00  0.00  0.00
  GQ17                    1.00   0.02  0.00  0.00  0.83  0.15  0.00  0.00  0.93  0.00
  GQ18                    1.00   0.02  0.00  0.00  0.91  0.07  0.00  0.00  0.03  0.00
  GQ19                    1.00   0.02  0.00  0.00  0.73  0.25  0.00  0.00  0.93  0.00
  GQ20                    1.00   0.02  0.00  0.00  0.98  0.00  0.00  0.00  0.93  0.00
  GQ21                    1.00   0.02  0.00  0.00  0.44  0.54  0.00  0.00  0.93  0.00
  GQ22                    1.00   0.02  0.00  0.00  0.05  0.92  0.00  0.00  0.93  0.00
  GQ23                    1.00   0.02  0.00  0.00  0.00  0.98  0.00  0.00  0.16  0.00
  GQ24                    1.00   0.02  0.00  0.00  0.91  0.07  0.00  0.00  0.88  0.00
  GQ25                    1.00   0.02  0.00  0.00  0.00  0.98  0.00  0.00  0.01  0.00
  GQ26                    1.00   0.02  0.00  0.00  0.00  0.98  0.00  0.00  0.89  0.00
  GQ27                    1.00   0.02  0.00  0.00  0.80  0.17  0.00  0.00  0.85  0.00
  GQ28                    1.00   0.02  0.00  0.00  0.98  0.00  0.00  0.00  0.87  0.00
  GQ29                    1.00   0.02  0.00  0.00  0.98  0.00  0.00  0.00  0.07  0.00
  GQ30                    1.00   0.02  0.00  0.00  0.97  0.01  0.00  0.00  0.06  0.00
  GQ31                    1.00   0.02  0.00  0.00  0.98  0.00  0.00  0.00  0.86  0.00
  GQ32                    1.00   0.02  0.00  0.00  0.00  0.98  0.00  0.00  0.01  0.00
  GQ33                    1.00   0.02  0.00  0.00  0.63  0.35  0.00  0.00  0.82  0.00
  GQ34                    1.00   0.02  0.00  0.00  0.97  0.01  0.00  0.00  0.93  0.00
  GQ35                    1.00   0.02  0.00  0.00  0.15  0.83  0.00  0.00  0.66  0.00
  GQ36                    1.00   0.02  0.00  0.00  0.12  0.86  0.00  0.00  0.84  0.00
  GQ37                    1.00   0.02  0.00  0.00  0.98  0.00  0.00  0.00  0.85  0.00
  GQ38                    1.00   0.02  0.00  0.00  0.98  0.00  0.00  0.00  0.87  0.00
  GQ39                    1.00   0.02  0.00  0.00  0.96  0.02  0.00  0.00  0.85  0.00
  GQ40                    1.00   0.02  0.00  0.00  0.05  0.93  0.00  0.00  0.91  0.00
  GQ41                    1.00   0.02  0.00  0.00  0.98  0.00  0.00  0.00  0.83  0.00
  GQ42                    1.00   0.02  0.00  0.00  0.98  0.00  0.00  0.00  0.70  0.00
  GQ43                    1.00   0.02  0.00  0.00  0.13  0.85  0.00  0.00  0.85  0.00
  GQ44                    1.00   0.02  0.00  0.00  0.98  0.00  0.00  0.00  0.45  0.00
  GQ45                    1.00   0.02  0.00  0.00  0.39  0.59  0.00  0.00  0.93  0.00
  GQ46                    1.00   0.02  0.00  0.00  0.59  0.39  0.00  0.00  0.59  0.00
  GQ47                    1.00   0.02  0.00  0.00  0.98  0.00  0.00  0.00  0.93  0.00
  GQ48                    1.00   0.02  0.00  0.00  0.98  0.00  0.00  0.00  0.93  0.00
  GQ49                    1.00   0.02  0.00  0.00  0.82  0.16  0.00  0.00  0.93  0.00
  GQ50                    1.00   0.02  0.00  0.00  0.98  0.00  0.00  0.00  0.93  0.00
  GQ51                    1.00   0.02  0.00  0.00  0.00  0.98  0.00  0.00  0.71  0.00
  GQ52                    1.00   0.02  0.00  0.00  0.98  0.00  0.00  0.00  0.88  0.00
  GQ53                    1.00   0.02  0.00  0.00  0.98  0.00  0.00  0.00  0.75  0.00
  GQ54                    1.00   0.02  0.00  0.00  0.98  0.00  0.00  0.00  0.93  0.00
  GQ55                    1.00   0.02  0.00  0.00  0.98  0.00  0.00  0.00  0.93  0.00
  GQ56                    1.00   0.02  0.00  0.00  0.17  0.81  0.00  0.00  0.69  0.00
  GQ57                    1.00   0.02  0.00  0.00  0.98  0.00  0.00  0.00  0.93  0.00
  GQ58                    1.00   0.02  0.00  0.00  0.85  0.13  0.00  0.00  0.93  0.00
  GQ59                    1.00   0.02  0.00  0.00  0.98  0.00  0.00  0.00  0.74  0.00
  GQ60                    1.00   0.02  0.00  0.00  0.98  0.00  0.00  0.00  0.10  0.00
  GQ61                    1.00   0.02  0.00  0.00  0.98  0.00  0.00  0.00  0.93  0.00
  GQ62                    1.00   0.02  0.00  0.00  0.98  0.00  0.00  0.00  0.93  0.00
  GQ63                    1.00   0.02  0.00  0.00  0.97  0.01  0.00  0.00  0.93  0.00
  GQ64                    1.00   0.02  0.00  0.00  0.31  0.67  0.00  0.00  0.93  0.00
  GQ65                    1.00   0.02  0.00  0.00  0.98  0.00  0.00  0.00  0.93  0.00
  GQ66                    1.00   0.02  0.00  0.00  0.97  0.01  0.00  0.00  0.93  0.00
  GQ67                    1.00   0.02  0.00  0.00  0.98  0.00  0.00  0.00  0.04  0.00
  GQ68                    1.00   0.02  0.00  0.00  0.98  0.00  0.00  0.00  0.93  0.00
  GQ69                    1.00   0.02  0.00  0.00  0.83  0.15  0.00  0.00  0.93  0.00
  GQ70                    1.00   0.02  0.00  0.00  0.00  0.98  0.00  0.00  0.00  0.00
  GQ71                    1.00   0.02  0.00  0.00  0.00  0.98  0.00  0.00  0.15  0.00
  GQ72                    1.00   0.02  0.00  0.00  0.00  0.98  0.00  0.00  0.32  0.00
  GQ73                    1.00   0.02  0.00  0.00  0.00  0.98  0.00  0.00  0.01  0.00
  GQ74                    1.00   0.02  0.00  0.00  0.90  0.07  0.00  0.00  0.93  0.00
  GQ75                    1.00   0.02  0.00  0.00  0.98  0.00  0.00  0.00  0.93  0.00
  GQ76                    1.00   0.02  0.00  0.00  0.00  0.98  0.00  0.00  0.29  0.00
  GQ77                    1.00   0.02  0.98  0.00  0.00  0.00  0.00  0.00  0.00  0.00
  GQ78                    1.00   0.02  0.00  0.00  0.93  0.05  0.00  0.00  0.82  0.00
  GQ79                    1.00   0.02  0.00  0.00  0.98  0.00  0.00  0.00  0.05  0.00
  GQ80                    1.00   0.02  0.00  0.00  0.98  0.00  0.00  0.00  0.64  0.00
  GQ81                    1.00   0.02  0.00  0.00  0.98  0.00  0.00  0.00  0.03  0.00
  GQ82                    1.00   0.02  0.00  0.00  0.85  0.13  0.00  0.00  0.92  0.00
  GQ83                    1.00   0.02  0.00  0.00  0.00  0.98  0.00  0.00  0.93  0.00
  GQ84                    1.00   0.02  0.00  0.00  0.08  0.90  0.00  0.00  0.93  0.00
  GQ85                    1.00   0.02  0.00  0.00  0.98  0.00  0.00  0.00  0.66  0.00
  GQ86                    1.00   0.02  0.00  0.00  0.98  0.00  0.00  0.00  0.93  0.00
  GQ87                    1.00   0.02  0.00  0.00  0.98  0.00  0.00  0.00  0.93  0.00
  GQ88                    1.00   0.02  0.00  0.00  0.98  0.00  0.00  0.00  0.93  0.00
  GQ89                    1.00   0.02  0.00  0.00  0.97  0.01  0.00  0.00  0.93  0.00
  GQ90                    1.00   0.02  0.00  0.00  0.97  0.01  0.00  0.00  0.93  0.00
  GQ91                    1.00   0.02  0.00  0.00  0.97  0.01  0.00  0.00  0.93  0.00
  GQ92                    1.00   0.02  0.00  0.00  0.86  0.12  0.00  0.00  0.03  0.00
  GQ93                    1.00   0.02  0.00  0.00  0.98  0.00  0.00  0.00  0.87  0.00
  GQ94                    1.00   0.02  0.00  0.00  0.42  0.56  0.00  0.00  0.02  0.00
  GQ95                    1.00   0.02  0.00  0.00  0.98  0.00  0.00  0.00  0.93  0.00
  GQ96                    1.00   0.02  0.00  0.00  0.98  0.00  0.00  0.00  0.55  0.00
  GQ97                    1.00   0.02  0.00  0.00  0.00  0.98  0.00  0.00  0.47  0.00
  GQ98                    1.00   0.02  0.00  0.00  0.98  0.00  0.00  0.00  0.83  0.00
  GQ99                    1.00   0.02  0.00  0.00  0.97  0.01  0.00  0.00  0.93  0.00
  GQ100                   1.00   0.02  0.00  0.00  0.00  0.98  0.00  0.00  0.00  0.00
  GQ101                   1.00   0.02  0.00  0.00  0.97  0.01  0.00  0.00  0.93  0.00
  GQ102                   1.00   0.02  0.00  0.00  0.84  0.14  0.00  0.00  0.93  0.00
  GQ103                   1.00   0.02  0.00  0.00  0.98  0.00  0.00  0.00  0.87  0.00
  GQ104                   1.00   0.02  0.00  0.00  0.75  0.23  0.00  0.00  0.93  0.00
  GQ105                   1.00   0.02  0.00  0.00  0.98  0.00  0.00  0.00  0.05  0.00
  GQ106                   1.00   0.02  0.00  0.00  0.97  0.01  0.00  0.00  0.93  0.00
  GQ107                   1.00   0.02  0.00  0.00  0.76  0.22  0.00  0.00  0.86  0.00
  GQ108                   1.00   0.02  0.00  0.00  0.98  0.00  0.00  0.00  0.08  0.00
  GQ109                   1.00   0.02  0.00  0.00  0.91  0.07  0.00  0.00  0.93  0.00
  GQ110                   1.00   0.02  0.00  0.00  0.97  0.01  0.00  0.00  0.93  0.00
  GQ111                   1.00   0.02  0.00  0.00  0.97  0.01  0.00  0.00  0.93  0.00
  GQ112                   1.00   0.02  0.00  0.00  0.00  0.98  0.00  0.00  0.91  0.00
  GQ113                   1.00   0.02  0.00  0.00  0.00  0.98  0.00  0.00  0.91  0.00
  GQ114                   1.00   0.02  0.00  0.00  0.98  0.00  0.00  0.00  0.06  0.00
  GQ115                   1.00   0.02  0.00  0.00  0.96  0.02  0.00  0.00  0.93  0.00
  GQ116                   1.00   0.02  0.00  0.00  0.98  0.00  0.00  0.00  0.93  0.00
  GQ117                   1.00   0.02  0.00  0.00  0.00  0.98  0.00  0.00  0.00  0.00
  GQ118                   1.00   0.02  0.00  0.00  0.42  0.56  0.00  0.00  0.93  0.00
  GQ119                   1.00   0.02  0.00  0.00  0.76  0.22  0.00  0.00  0.82  0.00
  GQ120                   1.00   0.02  0.04  0.00  0.94  0.00  0.00  0.00  0.00  0.00
  GQ121                   1.00   0.02  0.00  0.00  0.97  0.01  0.00  0.00  0.06  0.00
  GQ122                   1.00   0.02  0.00  0.00  0.94  0.03  0.00  0.00  0.93  0.00
  GQ123                   1.00   0.02  0.00  0.00  0.94  0.03  0.00  0.00  0.93  0.00
  GQ124                   1.00   0.02  0.00  0.00  0.97  0.01  0.00  0.00  0.93  0.00
  GQ125                   1.00   0.02  0.00  0.00  0.97  0.01  0.00  0.00  0.93  0.00
  GQ126                   1.00   0.02  0.00  0.00  0.97  0.01  0.00  0.00  0.93  0.00
  GQ127                   1.00   0.02  0.00  0.00  0.98  0.00  0.00  0.00  0.44  0.00
  GQ128                   1.00   0.02  0.00  0.00  0.16  0.82  0.00  0.00  0.89  0.00
  GQ129                   1.00   0.02  0.00  0.00  0.98  0.00  0.00  0.00  0.59  0.00
  GQ130                   1.00   0.02  0.00  0.00  0.73  0.25  0.00  0.00  0.59  0.00
  GQ131                   1.00   0.02  0.00  0.00  0.90  0.08  0.00  0.00  0.85  0.00
  
  
  *************************
  Conduit Surcharge Summary
  *************************
  
  ----------------------------------------------------------------------------
                                                           Hours        Hours 
                         --------- Hours Full --------   Above Full   Capacity
  Conduit                Both Ends  Upstream  Dnstream   Normal Flow   Limited
  ----------------------------------------------------------------------------
  GQ4                         3.54      3.54     12.06      0.01         0.01
  GQ5                         0.64      0.64     11.95      0.01         0.01
  GQ6                         0.01      0.01      0.64      0.01         0.01
  GQ7                         1.65      1.65      2.66      0.01         0.01
  GQ8                         0.01      0.01      1.65      0.01         0.01
  GQ9                         0.01      0.01     12.31      0.01         0.01
  GQ10                        4.16      4.16     12.38      0.21         0.01
  GQ12                        0.01      0.01      9.59      0.01         0.01
  GQ13                        0.01      0.01      2.73      0.01         0.01
  GQ18                        0.01      0.01      7.59      8.85         0.01
  GQ20                        0.01      0.01      0.34      0.01         0.01
  GQ21                        0.01      0.01      0.34      0.01         0.01
  GQ24                        0.01      0.01     12.19      0.01         0.01
  GQ27                        0.01      0.01     11.79      0.01         0.01
  GQ28                        0.01      0.01     11.99      0.01         0.01
  GQ29                       11.70     11.70     11.99      0.01         0.01
  GQ30                       11.79     11.79     12.10      0.01         0.01
  GQ31                        0.01      0.01     12.42      0.01         0.01
  GQ32                        0.01      0.90      0.01      0.78         0.01
  GQ33                        0.90      0.90     12.42      0.01         0.01
  GQ34                        0.01      0.01      0.90      0.01         0.01
  GQ35                        0.79      0.79      0.90      0.07         0.01
  GQ36                        0.79      0.79      0.83      0.93         0.79
  GQ37                        0.01      0.01     12.28      0.01         0.01
  GQ38                        0.01      0.01     12.28      0.01         0.01
  GQ39                        0.28      0.28      9.59      0.01         0.01
  GQ40                        0.01      0.01      0.28      0.01         0.01
  GQ41                        0.01      0.01     11.96      0.01         0.01
  GQ42                        1.74      1.74     12.04      0.01         0.01
  GQ43                        0.97      0.97      1.74      0.10         0.01
  GQ44                        3.82      3.82      7.59      0.01         0.01
  GQ45                        0.01      0.01      2.12      0.01         0.01
  GQ46                        2.12      2.12      3.82      0.01         0.01
  GQ47                        0.01      0.01     12.07      0.01         0.01
  GQ48                        0.01      0.01     12.17      0.01         0.01
  GQ49                        0.01      0.01     12.17      0.01         0.01
  GQ51                        0.01      0.01      0.01      0.43         0.01
  GQ52                        0.01      0.01     11.70      0.01         0.01
  GQ53                        1.39      1.39     12.08      0.01         0.01
  GQ54                        0.01      0.01     12.19      0.01         0.01
  GQ55                        0.01      0.01     12.19      0.01         0.01
  GQ56                        1.19      1.19      1.65      0.31         0.13
  GQ57                        0.01      0.01      1.19      0.01         0.01
  GQ58                        0.01      0.01     11.87      0.01         0.01
  GQ59                        1.74      1.74     11.87      0.01         0.01
  GQ60                        0.66      0.66      1.76      0.01         0.01
  GQ61                        0.01      0.01     11.36      0.01         0.01
  GQ62                        0.01      0.01     11.45      0.01         0.01
  GQ63                        0.01      0.01     11.52      0.01         0.01
  GQ66                        0.01      0.01     11.54      0.01         0.01
  GQ67                       11.38     11.38     11.45      0.01         0.01
  GQ68                        0.01      0.01     11.70      0.01         0.01
  GQ69                        0.01      0.01     12.04      0.01         0.01
  GQ75                        0.01      0.01     11.70      0.01         0.01
  GQ78                        0.92      0.92     12.24      0.01         0.01
  GQ79                        0.01      0.01     12.24      0.01         0.01
  GQ80                        0.92      0.92      8.98      0.01         0.01
  GQ81                        8.90      8.98      9.59      7.84         3.75
  GQ82                        0.01      0.01      9.59      0.01         0.01
  GQ84                        0.01      0.01      1.46      0.01         0.01
  GQ85                        0.01      0.01     12.47      0.01         0.01
  GQ86                        0.01      0.01     12.08      0.01         0.01
  GQ87                        0.01      0.01     12.08      0.01         0.01
  GQ88                        0.01      0.01     12.13      0.01         0.01
  GQ89                        0.01      0.01     11.79      0.01         0.01
  GQ90                        0.01      0.01     11.64      0.01         0.01
  GQ91                        0.01      0.01     11.89      0.01         0.01
  GQ92                        0.01      0.01      0.28      0.01         0.01
  GQ93                        0.28      0.28      0.91      0.01         0.01
  GQ94                        0.90      0.91      0.97      0.96         0.84
  GQ95                        0.01      0.01     12.21      0.01         0.01
  GQ98                        0.01      0.01     12.02      0.01         0.01
  GQ99                        0.01      0.01     11.49      0.01         0.01
  GQ101                       0.01      0.01     11.89      0.01         0.01
  GQ102                       0.01      0.01     11.99      0.01         0.01
  GQ103                       0.01      0.01     12.13      0.01         0.01
  GQ104                       0.01      0.01     12.13      0.01         0.01
  GQ105                      11.93     11.93     11.99      9.30         0.01
  GQ106                       0.01      0.01     11.98      0.01         0.01
  GQ107                       0.28      0.28     11.98      0.01         0.01
  GQ108                       8.26      8.26     11.93      0.01         0.01
  GQ109                       0.01      0.01      0.28      0.01         0.01
  GQ110                       0.01      0.01     11.70      0.01         0.01
  GQ111                       0.01      0.01     11.89      0.01         0.01
  GQ114                       0.01      0.01     12.16      0.01         0.01
  GQ116                       0.01      0.01     12.07      0.01         0.01
  GQ119                       1.12      1.12     12.18      0.01         0.01
  GQ120                       0.01      0.01     12.11      0.01         0.01
  GQ121                      11.97     11.97     12.18      0.01         0.01
  GQ122                       0.01      0.01     11.97      0.01         0.01
  GQ123                       0.01      0.01     12.00      0.01         0.01
  GQ125                       0.01      0.01     11.89      0.01         0.01
  GQ126                       0.01      0.01     11.89      0.01         0.01
  GQ127                       0.97      0.97      1.12      0.13         0.09
  GQ128                       0.01      0.01      0.83      0.01         0.01
  GQ129                       2.66      2.66     12.19      0.01         0.01
  GQ130                       3.17      3.17     12.55      0.01         0.01
  GQ131                       0.01      0.01     12.44      0.01         0.01
  

  Analysis begun on:  Wed Mar 29 16:29:46 2023
  Analysis ended on:  Wed Mar 29 16:30:14 2023
  Total elapsed time: 00:00:28