
  OWA STORM WATER MANAGEMENT MODEL - VERSION v5.1.14 (OWA 2022-07-31)
  --------------------------------------------------------------

  INP file created by DSDAConvertToSwmmTools 
  version 0.0.1 EcoVista 
  Title/Notes: 
  
  
  *********************************************************
  NOTE: The summary statistics displayed in this report are
  based on results found at every computational time step,  
  not just on results from each reporting time step.
  *********************************************************
  
  ****************
  Analysis Options
  ****************
  Flow Units ............... CMS
  Process Models:
    Rainfall/Runoff ........ YES
    RDII ................... NO
    Snowmelt ............... NO
    Groundwater ............ NO
    Flow Routing ........... YES
    Ponding Allowed ........ NO
    Water Quality .......... NO
  Infiltration Method ...... GREEN_AMPT
  Flow Routing Method ...... DYNWAVE
  Surcharge Method ......... EXTRAN
  Starting Date ............ 07/15/2020 00:00:00
  Ending Date .............. 07/15/2020 11:00:00
  Antecedent Dry Days ...... 0.0
  Report Time Step ......... 00:30:00
  Wet Time Step ............ 00:05:00
  Dry Time Step ............ 01:00:00
  Routing Time Step ........ 30.00 sec
  Variable Time Step ....... YES
  Maximum Trials ........... 8
  Number of Threads ........ 1
  Head Tolerance ........... 0.001500 m
  
  
  **************************        Volume         Depth
  Runoff Quantity Continuity     hectare-m            mm
  **************************     ---------       -------
  Total Precipitation ......       151.468        37.900
  Evaporation Loss .........         3.751         0.939
  Infiltration Loss ........        40.479        10.129
  Surface Runoff ...........       101.059        25.287
  Final Storage ............         6.326         1.583
  Continuity Error (%) .....        -0.097
  
  
  **************************        Volume        Volume
  Flow Routing Continuity        hectare-m      10^6 ltr
  **************************     ---------     ---------
  Dry Weather Inflow .......         0.000         0.000
  Wet Weather Inflow .......       101.024      1010.255
  Groundwater Inflow .......         0.000         0.000
  RDII Inflow ..............         0.000         0.000
  External Inflow ..........         0.000         0.000
  External Outflow .........         9.274        92.740
  Flooding Loss ............        90.531       905.320
  Evaporation Loss .........         0.000         0.000
  Exfiltration Loss ........         0.000         0.000
  Initial Stored Volume ....         0.000         0.000
  Final Stored Volume ......         1.104        11.037
  Continuity Error (%) .....         0.115
  
  
  *************************
  Highest Continuity Errors
  *************************
  Node jd51 (5.43%)
  Node jd64 (4.35%)
  Node jd59 (4.27%)
  Node jd31 (3.98%)
  Node jd55 (3.37%)
  
  
  ***************************
  Time-Step Critical Elements
  ***************************
  Link GQ73 (97.33%)
  
  
  ********************************
  Highest Flow Instability Indexes
  ********************************
  Link GQ67 (31)
  Link GQ114 (12)
  Link GQ29 (11)
  Link GQ46 (6)
  Link GQ44 (6)
  
  
  *************************
  Routing Time Step Summary
  *************************
  Minimum Time Step           :     4.16 sec
  Average Time Step           :     8.07 sec
  Maximum Time Step           :    30.00 sec
  Percent in Steady State     :     0.00
  Average Iterations per Step :     4.63
  Percent Not Converging      :    18.32
  
  
  ***************************
  Subcatchment Runoff Summary
  ***************************
  
  ------------------------------------------------------------------------------------------------------------------------------
                            Total      Total      Total      Total     Imperv       Perv      Total       Total     Peak  Runoff
                           Precip      Runon       Evap      Infil     Runoff     Runoff     Runoff      Runoff   Runoff   Coeff
  Subcatchment                 mm         mm         mm         mm         mm         mm         mm    10^6 ltr      CMS
  ------------------------------------------------------------------------------------------------------------------------------
  1                         37.90       0.00       0.56      21.23      15.29       0.00      15.29        6.05     0.72   0.403
  2                         37.90       0.00       1.01       8.07      27.08       0.00      27.08       24.49     2.87   0.715
  3                         37.90       0.00       1.05       6.91      28.21       0.00      28.21       11.29     1.36   0.744
  4                         37.90       0.00       1.08       5.94      29.15       0.00      29.15        2.45     0.30   0.769
  5                         37.90       0.00       0.95       9.65      25.79       0.00      25.79        3.19     0.39   0.680
  6                         37.90       0.00       0.91      10.86      24.71       0.00      24.71        2.30     0.28   0.652
  7                         37.90       0.00       0.95       9.70      25.65       0.00      25.65       11.18     1.33   0.677
  8                         37.90       0.00       1.21       2.12      32.55       0.00      32.55        4.53     0.55   0.859
  9                         37.90       0.00       1.25       1.06      33.52       0.00      33.52        3.92     0.47   0.884
  10                        37.90       0.00       1.07       6.16      28.90       0.00      28.90        6.51     0.79   0.763
  11                        37.90       0.00       1.16       3.62      31.17       0.00      31.17       15.45     1.86   0.822
  12                        37.90       0.00       0.91      10.90      24.61       0.00      24.61       12.01     1.45   0.649
  13                        37.90       0.00       1.14       4.09      30.76       0.00      30.76       13.91     1.68   0.811
  14                        37.90       0.00       1.14       4.13      30.76       0.00      30.76        5.80     0.70   0.812
  15                        37.90       0.00       1.06       6.66      28.44       0.00      28.44        9.61     1.16   0.750
  16                        37.90       0.00       1.09       5.51      29.48       0.00      29.48        8.71     1.05   0.778
  17                        37.90       0.00       1.03       7.56      27.62       0.00      27.62       11.56     1.39   0.729
  18                        37.90       0.00       1.18       2.98      31.74       0.00      31.74       13.11     1.58   0.838
  19                        37.90       0.00       1.18       3.12      31.61       0.00      31.61        7.11     0.85   0.834
  20                        37.90       0.00       1.17       3.33      31.36       0.00      31.36       16.83     1.99   0.827
  21                        37.90       0.00       1.24       1.12      33.42       0.00      33.42       10.48     1.26   0.882
  22                        37.90       0.00       1.22       1.79      32.79       0.00      32.79        4.03     0.48   0.865
  23                        37.90       0.00       1.12       4.64      30.23       0.00      30.23       17.31     2.07   0.798
  24                        37.90       0.00       1.09       5.79      29.18       0.00      29.18        5.17     0.62   0.770
  25                        37.90       0.00       1.16       3.56      31.26       0.00      31.26        6.33     0.77   0.825
  26                        37.90       0.00       0.99       8.65      26.57       0.00      26.57        9.33     1.10   0.701
  27                        37.90       0.00       1.19       2.84      31.80       0.00      31.80       13.44     1.59   0.839
  28                        37.90       0.00       1.21       2.09      32.51       0.00      32.51       15.37     1.84   0.858
  29                        37.90       0.00       1.08       5.88      29.18       0.00      29.18        6.81     0.82   0.770
  30                        37.90       0.00       1.24       1.28      33.37       0.00      33.37        2.39     0.29   0.881
  31                        37.90       0.00       1.25       0.80      33.72       0.00      33.72        7.43     0.90   0.890
  32                        37.90       0.00       1.22       1.69      32.91       0.00      32.91       14.22     1.71   0.868
  33                        37.90       0.00       1.24       1.23      33.31       0.00      33.31       11.74     1.41   0.879
  34                        37.90       0.00       1.15       3.84      30.98       0.00      30.98        9.08     1.09   0.817
  35                        37.90       0.00       1.18       2.86      31.85       0.00      31.85       13.21     1.59   0.840
  36                        37.90       0.00       0.98       9.03      26.34       0.00      26.34       10.36     1.25   0.695
  37                        37.90       0.00       1.21       2.05      32.59       0.00      32.59        7.23     0.87   0.860
  38                        37.90       0.00       1.14       4.29      30.58       0.00      30.58       11.66     1.41   0.807
  39                        37.90       0.00       1.03       7.54      27.67       0.00      27.67       11.68     1.41   0.730
  40                        37.90       0.00       1.14       4.10      30.75       0.00      30.75        7.03     0.85   0.811
  41                        37.90       0.00       1.17       3.34      31.46       0.00      31.46        6.21     0.75   0.830
  42                        37.90       0.00       1.17       3.37      31.33       0.00      31.33        7.74     0.92   0.827
  43                        37.90       0.00       0.98       8.86      26.44       0.00      26.44       20.90     2.48   0.698
  44                        37.90       0.00       1.05       6.91      28.17       0.00      28.17       13.61     1.62   0.743
  45                        37.90       0.00       0.98       8.79      26.52       0.00      26.52       19.19     2.29   0.700
  46                        37.90       0.00       0.95       9.80      25.67       0.00      25.67       12.83     1.55   0.677
  47                        37.90       0.00       1.00       8.38      26.88       0.00      26.88       31.34     3.74   0.709
  48                        37.90       0.00       1.19       2.62      31.98       0.00      31.98       18.56     2.19   0.844
  49                        37.90       0.00       1.09       5.61      29.29       0.00      29.29       19.83     2.34   0.773
  50                        37.90       0.00       1.21       2.13      32.36       0.00      32.36       12.72     1.47   0.854
  51                        37.90       0.00       1.16       3.68      30.99       0.00      30.99        5.80     0.67   0.818
  52                        37.90       0.00       0.56      21.26      15.27       0.00      15.27       15.67     1.88   0.403
  53                        37.90       0.00       0.81      13.80      22.06       0.00      22.06       23.50     2.82   0.582
  54                        37.90       0.00       1.01       8.16      27.09       0.00      27.09        6.61     0.80   0.715
  55                        37.90       0.00       0.58      20.87      15.62       0.00      15.62       12.33     1.48   0.412
  56                        37.90       0.00       0.22      31.48       5.97       0.00       5.97        4.86     0.58   0.157
  57                        37.90       0.00       1.14       4.22      30.56       0.00      30.56       25.39     2.99   0.806
  58                        37.90       0.00       1.05       6.69      28.41       0.00      28.41        4.68     0.56   0.750
  59                        37.90       0.00       1.03       7.44      27.79       0.00      27.79        3.54     0.43   0.733
  60                        37.90       0.00       0.39      26.49      10.53       0.00      10.53        3.01     0.36   0.278
  61                        37.90       0.00       0.60      20.15      16.21       0.00      16.21        6.11     0.74   0.428
  62                        37.90       0.00       0.84      13.19      22.53       0.00      22.53       26.40     3.14   0.594
  63                        37.90       0.00       1.14       4.18      30.55       0.00      30.55       59.08     6.86   0.806
  64                        37.90       0.00       0.85      12.74      23.03       0.00      23.03        4.94     0.59   0.608
  65                        37.90       0.00       1.16       3.70      30.99       0.00      30.99       20.84     2.44   0.818
  66                        37.90       0.00       0.91      10.96      24.51       0.00      24.51        6.25     0.74   0.647
  67                        37.90       0.00       0.85      12.72      23.08       0.00      23.08        7.46     0.89   0.609
  68                        37.90       0.00       1.02       7.70      27.52       0.00      27.52        3.06     0.37   0.726
  69                        37.90       0.00       0.60      20.17      16.34       0.00      16.34        5.23     0.63   0.431
  70                        37.90       0.00       0.84      12.95      22.75       0.00      22.75       18.71     2.25   0.600
  71                        37.90       0.00       1.04       7.08      28.07       0.00      28.07        3.44     0.42   0.741
  72                        37.90       0.00       1.10       5.41      29.59       0.00      29.59        3.69     0.45   0.781
  73                        37.90       0.00       0.99       8.46      26.87       0.00      26.87        4.46     0.54   0.709
  74                        37.90       0.00       0.95       9.84      25.61       0.00      25.61        5.51     0.67   0.676
  75                        37.90       0.00       1.05       6.71      28.41       0.00      28.41        4.09     0.49   0.750
  76                        37.90       0.00       1.11       5.09      29.89       0.00      29.89        2.89     0.35   0.789
  77                        37.90       0.00       1.18       2.92      31.82       0.00      31.82        3.44     0.42   0.840
  78                        37.90       0.00       1.14       4.15      30.71       0.00      30.71        3.37     0.41   0.810
  79                        37.90       0.00       0.50      23.09      13.63       0.00      13.63       14.45     1.73   0.360
  80                        37.90       0.00       0.94      10.00      25.38       0.00      25.38       15.89     1.90   0.670
  81                        37.90       0.00       0.96       9.56      25.79       0.00      25.79       11.24     1.34   0.680
  82                        37.90       0.00       0.92      10.76      24.71       0.00      24.71       22.65     2.69   0.652
  83                        37.90       0.00       1.15       3.98      30.89       0.00      30.89        3.78     0.46   0.815
  84                        37.90       0.00       1.08       5.89      29.14       0.00      29.14        3.48     0.42   0.769
  85                        37.90       0.00       1.27       0.29      34.21       0.00      34.21        3.18     0.39   0.903
  86                        37.90       0.00       1.17       3.20      31.57       0.00      31.57        4.65     0.56   0.833
  87                        37.90       0.00       1.25       0.81      33.68       0.00      33.68        4.43     0.53   0.889
  88                        37.90       0.00       1.12       4.73      30.21       0.00      30.21        2.89     0.35   0.797
  89                        37.90       0.00       1.18       3.05      31.72       0.00      31.72        6.11     0.74   0.837
  90                        37.90       0.00       1.28       0.01      34.49       0.00      34.49        0.40     0.05   0.910
  91                        37.90       0.00       1.07       6.35      28.64       0.00      28.64        6.24     0.74   0.756
  92                        37.90       0.00       1.18       2.95      31.79       0.00      31.79        3.97     0.48   0.839
  93                        37.90       0.00       0.96       9.41      25.96       0.00      25.96       13.29     1.60   0.685
  94                        37.90       0.00       0.87      12.28      23.49       0.00      23.49        1.65     0.20   0.620
  95                        37.90       0.00       1.28       0.04      34.42       0.00      34.42        0.75     0.09   0.908
  96                        37.90       0.00       1.03       7.34      27.85       0.00      27.85        3.40     0.41   0.735
  97                        37.90       0.00       1.25       0.80      33.73       0.00      33.73        3.35     0.41   0.890
  98                        37.90       0.00       1.04       7.16      28.02       0.00      28.02        3.45     0.42   0.739
  99                        37.90       0.00       0.51      22.68      14.04       0.00      14.04        5.21     0.62   0.370
  100                       37.90       0.00       0.57      20.97      15.59       0.00      15.59        4.00     0.48   0.411
  101                       37.90       0.00       0.59      20.56      15.97       0.00      15.97        7.82     0.93   0.421
  102                       37.90       0.00       0.96       9.64      25.77       0.00      25.77        6.28     0.76   0.680
  103                       37.90       0.00       0.32      28.45       8.74       0.00       8.74        3.18     0.38   0.231
  104                       37.90       0.00       0.22      31.51       5.91       0.00       5.91        5.72     0.68   0.156
  105                       37.90       0.00       1.05       6.73      28.41       0.00      28.41        3.72     0.45   0.750
  106                       37.90       0.00       0.57      21.02      15.52       0.00      15.52        3.79     0.45   0.410
  
  
  ******************
  Node Depth Summary
  ******************
  
  ---------------------------------------------------------------------------------
                                 Average  Maximum  Maximum  Time of Max    Reported
                                   Depth    Depth      HGL   Occurrence   Max Depth
  Node                 Type       Meters   Meters   Meters  days hr:min      Meters
  ---------------------------------------------------------------------------------
  jd1                  JUNCTION     0.12     0.22   273.22     0  01:52        0.22
  jd2                  JUNCTION     0.61     3.00   270.00     0  01:35        3.00
  jd3                  JUNCTION     2.87     3.00   266.00     0  01:20        3.00
  jd4                  JUNCTION     1.71     3.00   270.00     0  01:25        3.00
  jd5                  JUNCTION     0.08     0.16   274.16     0  02:00        0.16
  jd6                  JUNCTION     0.10     0.20   275.20     0  02:00        0.20
  jd7                  JUNCTION     0.33     0.55   264.65     0  02:00        0.55
  jd8                  JUNCTION     2.02     3.00   267.00     0  01:20        3.00
  jd9                  JUNCTION     1.75     3.00   268.00     0  01:22        3.00
  jd10                 JUNCTION     2.89     3.00   273.00     0  01:16        3.00
  jd11                 JUNCTION     0.09     0.18   282.18     0  02:00        0.18
  jd12                 JUNCTION     2.89     3.00   272.00     0  01:16        3.00
  jd13                 JUNCTION     0.11     0.23   289.23     0  02:00        0.23
  jd14                 JUNCTION     0.47     3.00   283.00     0  01:35        3.00
  jd15                 JUNCTION     0.26     0.60   278.60     0  02:00        0.60
  jd16                 JUNCTION     0.29     0.63   274.63     0  02:00        0.63
  jd17                 JUNCTION     2.32     3.00   278.80     0  01:22        3.00
  jd18                 JUNCTION     0.54     3.00   282.00     0  01:38        3.00
  jd19                 JUNCTION     1.37     3.00   270.00     0  01:23        3.00
  jd20                 JUNCTION     0.20     0.35   273.35     0  02:00        0.35
  jd21                 JUNCTION     2.87     3.00   273.00     0  01:20        3.00
  jd22                 JUNCTION     1.86     3.00   275.00     0  01:21        3.00
  jd23                 JUNCTION     0.24     0.71   278.71     0  02:00        0.71
  jd24                 JUNCTION     0.13     0.26   285.26     0  02:00        0.26
  jd25                 JUNCTION     0.23     0.51   279.51     0  02:00        0.51
  jd26                 JUNCTION     0.52     3.00   288.00     0  01:33        3.00
  jd27                 JUNCTION     0.21     0.45   291.45     0  02:00        0.45
  jd28                 JUNCTION     2.90     3.00   290.00     0  01:15        3.00
  jd29                 JUNCTION     0.09     0.18   299.18     0  02:00        0.18
  jd30                 JUNCTION     0.12     0.25   290.25     0  02:00        0.25
  jd31                 JUNCTION     1.07     3.00   275.00     0  01:25        1.68
  jd32                 JUNCTION     2.89     3.00   275.00     0  01:17        3.00
  jd33                 JUNCTION     0.18     0.38   289.38     0  02:00        0.38
  jd34                 JUNCTION     0.25     3.00   297.00     0  01:46        1.48
  jd35                 JUNCTION     2.90     3.00   292.00     0  01:13        3.00
  jd36                 JUNCTION     0.77     3.00   302.00     0  01:30        3.00
  jd37                 JUNCTION     0.68     3.00   306.00     0  01:29        3.00
  jd38                 JUNCTION     0.38     0.94   297.94     0  02:00        0.94
  jd39                 JUNCTION     2.88     3.00   297.00     0  01:20        3.00
  jd40                 JUNCTION     1.24     3.00   302.00     0  01:30        3.00
  jd41                 JUNCTION     2.85     3.00   296.00     0  01:27        3.00
  jd42                 JUNCTION     0.19     0.39   305.39     0  02:00        0.39
  jd43                 JUNCTION     1.14     3.00   300.00     0  01:23        3.00
  jd44                 JUNCTION     1.21     3.00   286.00     0  01:28        3.00
  jd45                 JUNCTION     2.88     3.00   282.00     0  01:19        3.00
  jd46                 JUNCTION     0.27     0.58   275.58     0  02:01        0.58
  jd47                 JUNCTION     0.15     0.29   315.29     0  02:00        0.29
  jd48                 JUNCTION     0.10     0.21   325.21     0  02:00        0.21
  jd49                 JUNCTION     0.25     0.53   289.53     0  02:00        0.53
  jd50                 JUNCTION     2.90     3.00   278.00     0  01:14        3.00
  jd51                 JUNCTION     2.84     3.00   313.00     0  01:28        3.00
  jd52                 JUNCTION     0.63     3.00   326.00     0  01:36        2.01
  jd53                 JUNCTION     0.78     3.00   325.00     0  01:34        3.00
  jd54                 JUNCTION     0.27     0.56   326.56     0  02:00        0.56
  jd55                 JUNCTION     1.64     3.00   325.00     0  01:26        3.00
  jd56                 JUNCTION     0.18     0.40   327.40     0  02:00        0.40
  jd59                 JUNCTION     2.83     3.00   320.80     0  01:29        3.00
  jd60                 JUNCTION     2.89     3.00   319.00     0  01:15        3.00
  jd61                 JUNCTION     0.13     0.28   329.28     0  02:00        0.28
  jd62                 JUNCTION     0.06     0.12   335.12     0  02:00        0.12
  jd63                 JUNCTION     0.07     0.13   324.13     0  02:00        0.13
  jd64                 JUNCTION     2.65     3.00   321.00     0  01:29        3.00
  jd65                 JUNCTION     2.20     3.00   307.00     0  01:18        3.00
  jd66                 JUNCTION     2.89     3.00   304.00     0  01:17        3.00
  jd69                 JUNCTION     0.22     0.46   333.46     0  02:00        0.46
  jd79                 JUNCTION     2.75     3.00   274.00     0  01:15        3.00
  jd80                 JUNCTION     2.35     3.00   279.00     0  01:16        3.00
  jd81                 JUNCTION     0.14     0.29   288.29     0  02:00        0.29
  jd83                 JUNCTION     2.91     3.00   323.00     0  01:11        3.00
  jd84                 JUNCTION     0.44     3.00   326.00     0  01:30        3.00
  jd85                 JUNCTION     2.89     3.00   324.00     0  01:15        3.00
  jd87                 JUNCTION     2.89     3.00   322.00     0  01:16        3.00
  jd89                 JUNCTION     0.15     0.31   324.31     0  02:00        0.31
  jd90                 JUNCTION     0.13     0.27   328.27     0  02:00        0.27
  jd92                 JUNCTION     0.13     0.28   326.28     0  02:00        0.28
  jd93                 JUNCTION     0.77     3.00   327.00     0  01:31        3.00
  jd94                 JUNCTION     0.38     3.00   329.20     0  01:39        2.04
  jd95                 JUNCTION     0.44     3.00   330.00     0  01:39        2.38
  jd96                 JUNCTION     2.90     3.00   308.00     0  01:13        3.00
  jd97                 JUNCTION     0.45     3.00   330.20     0  01:39        2.50
  jd98                 JUNCTION     0.18     0.39   329.39     0  02:00        0.39
  jd99                 JUNCTION     2.89     3.00   327.00     0  01:17        3.00
  jd101                JUNCTION     0.11     0.21   321.21     0  02:00        0.21
  jd102                JUNCTION     0.22     0.52   324.52     0  02:00        0.52
  jd103                JUNCTION     0.11     0.22   318.22     0  02:00        0.22
  jd106                JUNCTION     2.86     3.00   287.00     0  01:23        3.00
  jd107                JUNCTION     0.20     0.40   332.40     0  02:00        0.40
  jd108                JUNCTION     1.17     2.19   328.19     0  01:15        1.50
  jd109                JUNCTION     0.15     0.33   343.33     0  02:00        0.33
  jd110                JUNCTION     2.90     3.00   327.00     0  01:15        3.00
  jd111                JUNCTION     0.07     0.14   344.14     0  02:00        0.14
  jd112                JUNCTION     0.09     0.17   334.17     0  02:00        0.17
  jd113                JUNCTION     0.10     0.19   348.19     0  02:00        0.19
  jd114                JUNCTION     2.88     3.00   317.00     0  01:18        3.00
  jd117                JUNCTION     1.29     3.00   319.00     0  01:21        2.89
  jd118                JUNCTION     0.09     0.18   330.18     0  02:00        0.18
  jd120                JUNCTION     0.15     0.34   327.34     0  02:00        0.34
  jd121                JUNCTION     0.15     0.32   320.32     0  02:00        0.32
  jd122                JUNCTION     2.88     3.00   276.00     0  01:19        3.00
  jd123                JUNCTION     2.86     3.00   276.20     0  01:20        3.00
  jd124                JUNCTION     2.91     3.00   271.00     0  01:10        3.00
  jd125                JUNCTION     1.50     3.00   278.00     0  01:24        3.00
  jd126                JUNCTION     2.90     3.00   275.00     0  01:12        3.00
  jd135                JUNCTION     0.13     0.27   289.27     0  02:00        0.27
  jd136                JUNCTION     0.25     0.53   341.53     0  02:00        0.53
  psk1                 OUTFALL      0.09     0.17   279.17     0  02:00        0.17
  psk2                 OUTFALL      0.12     0.25   270.25     0  02:00        0.25
  psk3                 OUTFALL      0.29     0.63   271.63     0  02:00        0.63
  psk4                 OUTFALL      0.00     0.00   280.00     0  00:00        0.00
  psk5                 OUTFALL      0.12     0.22   263.22     0  01:52        0.22
  psk6                 OUTFALL      0.08     0.16   259.16     0  02:00        0.16
  psk7                 OUTFALL      0.33     0.55   262.55     0  02:00        0.55
  psk8                 OUTFALL      0.00     0.00   317.00     0  00:00        0.00
  
  
  *******************
  Node Inflow Summary
  *******************
  
  -------------------------------------------------------------------------------------------------
                                  Maximum  Maximum                  Lateral       Total        Flow
                                  Lateral    Total  Time of Max      Inflow      Inflow     Balance
                                   Inflow   Inflow   Occurrence      Volume      Volume       Error
  Node                 Type           CMS      CMS  days hr:min    10^6 ltr    10^6 ltr     Percent
  -------------------------------------------------------------------------------------------------
  jd1                  JUNCTION     0.725    1.065     0  01:50        6.05        9.71      -0.017
  jd2                  JUNCTION     1.100    1.472     0  02:00        9.33        12.7      -0.004
  jd3                  JUNCTION     1.330    3.049     0  02:00        11.2        33.9       1.166
  jd4                  JUNCTION     1.591    1.773     0  02:00        13.4          15       0.025
  jd5                  JUNCTION     0.475    0.782     0  02:00        3.92        6.77      -0.017
  jd6                  JUNCTION     0.547    0.547     0  02:00        4.53        4.53      -0.022
  jd7                  JUNCTION     0.277    2.428     0  02:00        2.29        31.5       0.035
  jd8                  JUNCTION     0.386    1.331     0  02:00        3.19        21.6       0.311
  jd9                  JUNCTION     0.296    1.364     0  02:00        2.45        20.5      -0.011
  jd10                 JUNCTION     0.787    0.995     0  02:00        6.51        8.27       1.220
  jd11                 JUNCTION     1.160    1.160     0  02:00        9.61        9.61      -0.072
  jd12                 JUNCTION     0.870    1.911     0  02:00        7.23        15.7       0.875
  jd13                 JUNCTION     1.577    1.577     0  02:00        13.1        13.1      -0.034
  jd14                 JUNCTION     1.836    2.076     0  02:00        15.4        17.3       0.020
  jd15                 JUNCTION     0.765    1.754     0  01:52        6.33        14.2       0.137
  jd16                 JUNCTION     0.824    3.357     0  02:00        6.81        26.7       0.036
  jd17                 JUNCTION     1.712    3.616     0  02:00        14.2        35.8       0.407
  jd18                 JUNCTION     1.363    1.988     0  02:00        11.3        16.4       0.035
  jd19                 JUNCTION     1.266    2.264     0  02:00        10.5        21.1       0.012
  jd20                 JUNCTION     1.048    1.295     0  02:00         8.7        14.5       0.010
  jd21                 JUNCTION     0.484    2.850     0  02:00        4.03        31.7       1.062
  jd22                 JUNCTION     0.854    1.637     0  02:00         7.1        15.5       0.523
  jd23                 JUNCTION     0.847    2.531     0  02:00        7.03        19.9       0.005
  jd24                 JUNCTION     1.394    1.394     0  02:00        11.6        11.6      -0.047
  jd25                 JUNCTION     1.093    1.592     0  02:00        9.08        13.2       0.009
  jd26                 JUNCTION     1.591    2.517     0  02:00        13.2        21.9      -0.004
  jd27                 JUNCTION     1.624    2.314     0  02:00        13.6        22.3       0.024
  jd28                 JUNCTION     2.190    2.825     0  02:00        18.6        25.7       0.509
  jd29                 JUNCTION     0.897    0.897     0  02:00        7.43        7.43      -0.077
  jd30                 JUNCTION     0.921    2.782     0  02:00        7.74        22.7       0.003
  jd31                 JUNCTION     0.617    1.489     0  01:23        5.17        11.2       4.141
  jd32                 JUNCTION     1.263    4.292     0  02:00        10.5        43.7       0.566
  jd33                 JUNCTION     1.247    2.170     0  02:00        10.4        17.5      -0.012
  jd34                 JUNCTION     1.546    1.546     0  02:00        12.8        12.8      -0.021
  jd35                 JUNCTION     1.409    3.466     0  02:00        11.7          38       0.336
  jd36                 JUNCTION     2.340    3.322     0  02:00        19.8        31.5       0.020
  jd37                 JUNCTION     2.478    2.478     0  02:00        20.9        20.9       0.042
  jd38                 JUNCTION     2.291    3.226     0  02:00        19.2        30.9       0.033
  jd39                 JUNCTION     1.595    4.247     0  02:00        13.3        52.2       0.983
  jd40                 JUNCTION     2.695    4.884     0  02:00        22.6        52.2      -0.004
  jd41                 JUNCTION     1.900    6.162     0  02:00        15.9        62.2       3.485
  jd42                 JUNCTION     2.437    2.679     0  02:00        20.8        22.9       0.054
  jd43                 JUNCTION     2.824    4.804     0  02:00        23.5        41.1       0.075
  jd44                 JUNCTION     3.744    6.359     0  02:00        31.3        69.8       0.003
  jd45                 JUNCTION     1.467    3.692     0  02:00        12.7        46.1       0.694
  jd46                 JUNCTION     0.674    0.674     0  02:00         5.8         5.8      -0.054
  jd47                 JUNCTION     2.247    2.247     0  02:00        18.7        18.7      -0.277
  jd48                 JUNCTION     0.626    0.626     0  02:00        5.23        5.23      -0.093
  jd49                 JUNCTION     2.994    2.994     0  02:00        25.4        25.4       0.008
  jd50                 JUNCTION     3.142    6.427     0  02:00        26.4        71.8       0.582
  jd51                 JUNCTION     0.666    3.049     0  02:00        5.51        25.4       5.745
  jd52                 JUNCTION     1.337    4.760     0  01:35        11.2        38.6       0.001
  jd53                 JUNCTION     0.737    2.981     0  01:34        6.24        31.6      -0.020
  jd54                 JUNCTION     0.406    2.014     0  02:00        3.35        16.7       0.034
  jd55                 JUNCTION     0.739    2.878     0  02:00        6.11        20.8       3.489
  jd56                 JUNCTION     0.450    1.315     0  02:00        3.71        10.9      -0.045
  jd59                 JUNCTION     0.445    2.207     0  02:00        3.68        17.9       4.460
  jd60                 JUNCTION     0.796    1.690     0  02:00         6.6        14.1       0.916
  jd61                 JUNCTION     0.893    1.004     0  02:00        7.46        8.39      -0.033
  jd62                 JUNCTION     0.361    0.361     0  02:00        3.01        3.01      -0.052
  jd63                 JUNCTION     0.495    0.495     0  02:00        4.09        4.09      -0.079
  jd64                 JUNCTION     0.416    1.028     0  02:00        3.44        8.51       4.545
  jd65                 JUNCTION     6.857    6.857     0  02:00        59.1        59.1       0.012
  jd66                 JUNCTION     0.934    2.713     0  02:00        7.82        22.7       1.434
  jd69                 JUNCTION     1.732    1.780     0  02:00        14.4        14.8      -0.066
  jd79                 JUNCTION     1.675    2.591     0  02:00        13.9        24.5       0.703
  jd80                 JUNCTION     1.858    2.466     0  02:00        15.4        20.6       0.082
  jd81                 JUNCTION     1.408    1.408     0  02:00        11.7        11.7      -0.022
  jd83                 JUNCTION     1.483    2.061     0  02:00        12.3        16.4       0.532
  jd84                 JUNCTION     1.885    1.885     0  02:00        15.7        15.7      -0.028
  jd85                 JUNCTION     0.428    0.701     0  02:00        3.54        5.82       1.469
  jd87                 JUNCTION     0.350    0.843     0  02:00        2.89        7.02       1.042
  jd89                 JUNCTION     0.407    0.407     0  02:00        3.37        3.37      -0.085
  jd90                 JUNCTION     0.416    0.416     0  02:00        3.44        3.44      -0.092
  jd92                 JUNCTION     0.350    0.350     0  02:00        2.89        2.89      -0.071
  jd93                 JUNCTION     0.743    1.619     0  02:00        6.24        13.5       0.031
  jd94                 JUNCTION     0.048    0.876     0  02:00       0.396        7.24      -0.047
  jd95                 JUNCTION     0.091    0.828     0  02:00       0.751        6.85       0.088
  jd96                 JUNCTION     0.684    0.912     0  02:00        5.72         7.6       1.239
  jd97                 JUNCTION     0.737    0.737     0  02:00        6.11        6.11       0.001
  jd98                 JUNCTION     0.412    0.412     0  02:00         3.4         3.4      -0.017
  jd99                 JUNCTION     0.198    0.470     0  02:00        1.65        5.06       1.130
  jd101                JUNCTION     0.539    1.071     0  02:00        4.46        8.89      -0.180
  jd102                JUNCTION     0.534    0.534     0  02:00        4.43        4.43       0.028
  jd103                JUNCTION     0.370    0.370     0  02:00        3.06        3.06      -0.051
  jd106                JUNCTION     0.290    1.695     0  02:00        2.39          14       2.809
  jd107                JUNCTION     0.418    1.371     0  02:00        3.45        11.4       0.029
  jd108                JUNCTION     0.455    0.455     0  02:00        3.79         3.8       1.719
  jd109                JUNCTION     0.757    0.757     0  02:00        6.28        6.28      -0.011
  jd110                JUNCTION     0.578    0.860     0  02:00        4.86        7.22       2.088
  jd111                JUNCTION     0.479    0.479     0  02:00           4           4      -0.094
  jd112                JUNCTION     0.562    1.564     0  02:00        4.65          13      -0.010
  jd113                JUNCTION     0.379    0.379     0  02:00        3.17        3.17      -0.053
  jd114                JUNCTION     0.456    4.134     0  02:00        3.77        45.9       0.672
  jd117                JUNCTION     0.419    1.376     0  02:00        3.48        11.5       1.322
  jd118                JUNCTION     0.386    0.386     0  02:00        3.18        3.18      -0.041
  jd120                JUNCTION     0.480    0.480     0  02:00        3.97        3.97      -0.054
  jd121                JUNCTION     0.591    0.591     0  02:00        4.94        4.94      -0.047
  jd122                JUNCTION     1.406    5.044     0  02:00        11.7        50.2       1.096
  jd123                JUNCTION     1.447    3.792     0  02:00          12        48.5       1.409
  jd124                JUNCTION     2.069    3.142     0  02:00        17.3        39.2       0.146
  jd125                JUNCTION     1.989    3.664     0  02:00        16.8        47.4      -0.017
  jd126                JUNCTION     2.872    3.735     0  02:00        24.5        33.8       0.302
  jd135                JUNCTION     0.751    0.751     0  02:00         6.2         6.2      -0.035
  jd136                JUNCTION     0.623    1.003     0  02:00        5.21        8.38       0.024
  psk1                 OUTFALL      0.000    0.754     0  02:00           0        6.22       0.000
  psk2                 OUTFALL      0.000    2.108     0  02:00           0        16.9       0.000
  psk3                 OUTFALL      0.000    3.349     0  02:00           0        26.7       0.000
  psk4                 OUTFALL      0.000    0.000     0  00:00           0           0       0.000 ltr
  psk5                 OUTFALL      0.000    0.691     0  01:52           0        6.31       0.000
  psk6                 OUTFALL      0.000    0.599     0  02:00           0        5.19       0.000
  psk7                 OUTFALL      0.000    2.427     0  02:00           0        31.5       0.000
  psk8                 OUTFALL      0.000    0.000     0  00:00           0           0       0.000 ltr
  
  
  **********************
  Node Surcharge Summary
  **********************
  
  Surcharging occurs when water rises above the top of the highest conduit.
  ---------------------------------------------------------------------
                                               Max. Height   Min. Depth
                                   Hours       Above Crown    Below Rim
  Node                 Type      Surcharged         Meters       Meters
  ---------------------------------------------------------------------
  jd2                  JUNCTION        0.92          2.200        0.000
  jd3                  JUNCTION        9.66          2.200        0.000
  jd4                  JUNCTION        4.32          2.200        0.000
  jd8                  JUNCTION        6.20          2.200        0.000
  jd9                  JUNCTION        5.24          2.200        0.000
  jd10                 JUNCTION        9.73          2.400        0.000
  jd12                 JUNCTION        9.73          2.400        0.000
  jd14                 JUNCTION        0.62          2.400        0.000
  jd17                 JUNCTION        6.48          2.200        0.000
  jd18                 JUNCTION        0.64          2.000        0.000
  jd19                 JUNCTION        3.27          2.200        0.000
  jd21                 JUNCTION        9.66          2.200        0.000
  jd22                 JUNCTION        9.65          2.400        0.000
  jd26                 JUNCTION        0.68          2.400        0.000
  jd28                 JUNCTION        9.75          2.400        0.000
  jd31                 JUNCTION        9.58          2.200        0.000
  jd32                 JUNCTION        9.71          2.200        0.000
  jd34                 JUNCTION        0.27          2.400        0.000
  jd35                 JUNCTION        9.78          2.400        0.000
  jd36                 JUNCTION        1.56          2.400        0.000
  jd37                 JUNCTION        1.09          2.400        0.000
  jd39                 JUNCTION        9.66          2.000        0.000
  jd40                 JUNCTION        2.63          2.200        0.000
  jd41                 JUNCTION        9.54          1.000        0.000
  jd43                 JUNCTION        2.06          2.200        0.000
  jd44                 JUNCTION        2.59          2.000        0.000
  jd45                 JUNCTION        9.67          2.000        0.000
  jd50                 JUNCTION        9.75          2.200        0.000
  jd51                 JUNCTION        9.53          1.350        0.000
  jd52                 JUNCTION        0.97          1.500        0.000
  jd53                 JUNCTION        1.33          1.800        0.000
  jd55                 JUNCTION        2.99          1.500        0.000
  jd59                 JUNCTION        9.51          1.500        0.000
  jd60                 JUNCTION        9.74          2.400        0.000
  jd64                 JUNCTION        9.52          1.800        0.000
  jd65                 JUNCTION        5.73          2.400        0.000
  jd66                 JUNCTION        9.71          2.200        0.000
  jd79                 JUNCTION        9.74          2.400        0.000
  jd80                 JUNCTION        6.96          2.400        0.000
  jd83                 JUNCTION        9.82          2.400        0.000
  jd84                 JUNCTION        0.57          2.400        0.000
  jd85                 JUNCTION        9.74          2.400        0.000
  jd87                 JUNCTION        9.73          2.400        0.000
  jd93                 JUNCTION        1.42          2.200        0.000
  jd94                 JUNCTION        0.66          2.200        0.000
  jd95                 JUNCTION        0.50          2.200        0.000
  jd96                 JUNCTION        9.78          2.200        0.000
  jd97                 JUNCTION        0.47          2.200        0.000
  jd99                 JUNCTION        9.71          2.400        0.000
  jd106                JUNCTION        9.62          2.000        0.000
  jd108                JUNCTION        9.75          1.191        0.809
  jd110                JUNCTION        9.75          2.000        0.000
  jd114                JUNCTION        9.69          2.000        0.000
  jd117                JUNCTION        9.65          2.200        0.000
  jd122                JUNCTION        9.68          2.200        0.000
  jd123                JUNCTION        9.65          2.200        0.000
  jd124                JUNCTION        9.83          2.400        0.000
  jd125                JUNCTION        3.78          2.200        0.000
  jd126                JUNCTION        9.79          2.400        0.000
  
  
  *********************
  Node Flooding Summary
  *********************
  
  Flooding refers to all water that overflows a node, whether it ponds or not.
  --------------------------------------------------------------------------
                                                             Total   Maximum
                                 Maximum   Time of Max       Flood    Ponded
                        Hours       Rate    Occurrence      Volume     Depth
  Node                 Flooded       CMS   days hr:min    10^6 ltr    Meters
  --------------------------------------------------------------------------
  jd2                     0.52     0.315      0  01:35       0.311     0.000
  jd3                     9.66     3.049      0  02:00      33.547     0.000
  jd4                     3.17     1.262      0  02:00       4.673     0.000
  jd8                     2.68     0.579      0  01:20       1.089     0.000
  jd9                     2.27     0.824      0  01:22       2.094     0.000
  jd10                    9.73     0.995      0  02:00       8.174     0.000
  jd12                    9.73     1.911      0  02:00      15.597     0.000
  jd14                    0.40     0.259      0  01:35       0.204     0.000
  jd17                    4.55     2.787      0  02:00      15.056     0.000
  jd18                    0.44     0.680      0  01:38       0.621     0.000
  jd19                    1.66     1.196      0  02:00       3.012     0.000
  jd21                    9.66     2.850      0  02:00      31.111     0.000
  jd22                    1.74     0.814      0  02:00       2.331     0.000
  jd26                    0.57     0.621      0  02:00       0.927     0.000
  jd28                    9.75     2.824      0  02:00      25.560     0.000
  jd31                    0.01     1.276      0  01:25       0.015     0.000
  jd32                    9.71     4.292      0  02:00      43.409     0.000
  jd34                    0.01     0.072      0  01:46       0.000     0.000
  jd35                    9.78     3.466      0  02:00      37.840     0.000
  jd36                    0.89     1.199      0  02:00       2.294     0.000
  jd37                    0.81     1.002      0  02:00       1.762     0.000
  jd39                    9.66     4.246      0  02:00      51.671     0.000
  jd40                    1.81     2.322      0  02:00       8.527     0.000
  jd41                    9.54     6.162      0  02:00      60.099     0.000
  jd43                    1.85     2.972      0  02:00       9.364     0.000
  jd44                    1.58     2.458      0  02:00       5.898     0.000
  jd45                    9.67     3.692      0  02:00      45.801     0.000
  jd50                    9.75     6.426      0  02:00      71.389     0.000
  jd51                    9.53     3.049      0  02:00      24.036     0.000
  jd52                    0.01     2.562      0  01:36       0.065     0.000
  jd53                    0.53     0.905      0  01:34       0.803     0.000
  jd55                    0.88     2.878      0  02:00       5.612     0.000
  jd59                    9.51     2.206      0  02:00      17.151     0.000
  jd60                    9.74     1.690      0  02:00      13.949     0.000
  jd64                    0.01     0.200      0  01:29       0.003     0.000
  jd65                    5.54     5.763      0  02:00      32.208     0.000
  jd66                    9.71     2.713      0  02:00      22.354     0.000
  jd79                    6.15     2.344      0  02:00      18.596     0.000
  jd80                    5.84     2.308      0  02:00      15.644     0.000
  jd83                    9.81     2.061      0  02:00      16.308     0.000
  jd84                    0.37     0.210      0  01:30       0.045     0.000
  jd85                    9.74     0.701      0  02:00       5.732     0.000
  jd87                    9.73     0.843      0  02:00       6.944     0.000
  jd93                    0.47     0.428      0  02:00       0.550     0.000
  jd94                    0.01     0.297      0  01:39       0.002     0.000
  jd95                    0.01     0.175      0  01:39       0.002     0.000
  jd96                    9.78     0.912      0  02:00       7.509     0.000
  jd97                    0.01     0.099      0  01:40       0.003     0.000
  jd99                    9.71     0.470      0  02:00       5.001     0.000
  jd106                   9.62     1.695      0  02:00      13.619     0.000
  jd110                   9.75     0.860      0  02:00       7.075     0.000
  jd114                   9.69     4.134      0  02:00      45.530     0.000
  jd117                   0.01     1.113      0  01:21       0.025     0.000
  jd122                   9.68     5.044      0  02:00      49.576     0.000
  jd123                   7.69     3.477      0  02:00      38.019     0.000
  jd124                   9.83     3.142      0  02:00      39.119     0.000
  jd125                   1.84     1.278      0  02:00       3.812     0.000
  jd126                   9.79     3.734      0  02:00      33.651     0.000
  
  
  ***********************
  Outfall Loading Summary
  ***********************
  
  -----------------------------------------------------------
                         Flow       Avg       Max       Total
                         Freq      Flow      Flow      Volume
  Outfall Node           Pcnt       CMS       CMS    10^6 ltr
  -----------------------------------------------------------
  psk1                  97.51     0.241     0.754       6.217
  psk2                  97.49     0.658     2.108      16.859
  psk3                  97.53     1.036     3.349      26.681
  psk4                   0.00     0.000     0.000       0.000
  psk5                  97.53     0.242     0.691       6.305
  psk6                  97.49     0.200     0.599       5.189
  psk7                  97.53     1.148     2.427      31.488
  psk8                   0.00     0.000     0.000       0.000
  -----------------------------------------------------------
  System                73.14     3.524     0.000      92.739
  
  
  ********************
  Link Flow Summary
  ********************
  
  -----------------------------------------------------------------------------
                                 Maximum  Time of Max   Maximum    Max/    Max/
                                  |Flow|   Occurrence   |Veloc|    Full    Full
  Link                 Type          CMS  days hr:min     m/sec    Flow   Depth
  -----------------------------------------------------------------------------
  GQ1                  CONDUIT     0.356     0  01:44      1.95    0.93    0.68
  GQ2                  CONDUIT     1.404     0  02:00      2.78    0.67    0.61
  GQ3                  CONDUIT     0.754     0  02:00      6.58    0.03    0.12
  GQ4                  CONDUIT     0.510     0  01:41      1.80    1.00    1.00
  GQ5                  CONDUIT     1.208     0  01:50      2.40    1.00    1.00
  GQ6                  CONDUIT     0.373     0  01:52      1.28    0.17    0.64
  GQ7                  CONDUIT     1.695     0  01:24      3.65    1.01    1.00
  GQ8                  CONDUIT     0.784     0  02:00      1.76    0.75    0.83
  GQ9                  CONDUIT     2.192     0  02:00      4.92    0.77    0.83
  GQ10                 CONDUIT     1.134     0  07:03      4.10    1.04    1.00
  GQ11                 CONDUIT     0.243     0  02:00      2.18    0.26    0.50
  GQ12                 CONDUIT     0.289     0  02:00      1.38    0.31    0.69
  GQ13                 CONDUIT     0.182     0  02:00      0.63    0.09    0.60
  GQ14                 CONDUIT     0.094     0  02:00      1.11    0.13    0.23
  GQ15                 CONDUIT     0.213     0  02:00      4.38    0.86    0.65
  GQ16                 CONDUIT     1.863     0  02:01      4.06    0.90    0.60
  GQ17                 CONDUIT     0.452     0  02:00      1.97    0.14    0.47
  GQ18                 CONDUIT     1.090     0  02:00      2.50    4.91    0.84
  GQ19                 CONDUIT     0.609     0  02:00      2.44    0.07    0.36
  GQ20                 CONDUIT     0.134     0  02:00      0.51    0.07    0.59
  GQ21                 CONDUIT     0.492     0  02:00      1.54    0.15    0.63
  GQ22                 CONDUIT     0.499     0  02:00      1.81    0.15    0.39
  GQ23                 CONDUIT     1.052     0  02:00      2.30    0.52    0.61
  GQ24                 CONDUIT     1.719     0  02:01      3.50    0.85    0.95
  GQ25                 CONDUIT     0.923     0  02:00      4.01    1.03    0.82
  GQ26                 CONDUIT     0.632     0  02:00      2.77    0.74    0.82
  GQ27                 CONDUIT     0.832     0  01:41      3.00    0.83    1.00
  GQ28                 CONDUIT     0.295     0  02:00      0.76    0.32    0.72
  GQ29                 CONDUIT     1.247     0  02:00      2.53    0.58    1.00
  GQ30                 CONDUIT     0.824     0  01:33      2.91    1.00    1.00
  GQ31                 CONDUIT     0.623     0  02:00      2.20    0.83    1.00
  GQ32                 CONDUIT     0.690     0  02:00      2.93    1.11    0.88
  GQ33                 CONDUIT     1.434     0  01:40      5.07    1.00    1.00
  GQ34                 CONDUIT     0.443     0  02:00      1.78    0.70    0.82
  GQ35                 CONDUIT     0.711     0  01:30      2.52    1.32    1.00
  GQ36                 CONDUIT     0.954     0  01:30      3.37    1.18    1.00
  GQ37                 CONDUIT     0.440     0  02:00      1.68    0.63    0.88
  GQ38                 CONDUIT     0.195     0  02:00      0.91    0.28    0.71
  GQ39                 CONDUIT     0.782     0  01:45      2.76    1.00    1.00
  GQ40                 CONDUIT     0.609     0  02:00      2.49    0.76    0.88
  GQ41                 CONDUIT     1.292     0  02:00      1.66    0.60    0.97
  GQ42                 CONDUIT     1.359     0  02:04      2.70    1.00    1.00
  GQ43                 CONDUIT     2.309     0  03:05      4.69    1.03    1.00
  GQ44                 CONDUIT     0.946     0  01:45      1.88    1.00    1.00
  GQ45                 CONDUIT     0.998     0  02:00      2.57    0.40    0.72
  GQ46                 CONDUIT     1.068     0  02:59      2.25    1.00    1.00
  GQ47                 CONDUIT     0.209     0  02:00      1.07    0.20    0.65
  GQ48                 CONDUIT     0.207     0  02:00      1.06    0.20    0.65
  GQ49                 CONDUIT     0.834     0  02:00      3.99    0.31    0.69
  GQ50                 CONDUIT     0.240     0  02:00      1.15    0.31    0.69
  GQ51                 CONDUIT     0.995     0  01:51      3.53    1.52    1.00
  GQ52                 CONDUIT     0.641     0  02:04      1.40    0.85    0.86
  GQ53                 CONDUIT     2.225     0  01:48      2.83    1.00    1.00
  GQ54                 CONDUIT     0.511     0  02:00      2.30    0.44    0.73
  GQ55                 CONDUIT     0.383     0  02:00      1.89    0.26    0.67
  GQ56                 CONDUIT     2.002     0  01:26      4.31    1.09    1.00
  GQ57                 CONDUIT     0.720     0  02:00      1.80    0.47    0.74
  GQ58                 CONDUIT     1.499     0  02:00      3.75    0.47    0.74
  GQ59                 CONDUIT     1.203     0  01:59      2.39    1.00    1.00
  GQ60                 CONDUIT     2.386     0  01:35      1.65    0.58    1.00
  GQ61                 CONDUIT     0.328     0  02:00      0.67    0.04    0.57
  GQ62                 CONDUIT     0.681     0  02:00      0.82    0.07    0.59
  GQ63                 CONDUIT     1.562     0  02:00      1.68    0.05    0.57
  GQ64                 CONDUIT     0.112     0  02:00      1.54    0.09    0.33
  GQ65                 CONDUIT     0.048     0  02:00      0.38    0.09    0.49
  GQ66                 CONDUIT     0.196     0  02:00      0.91    0.06    0.58
  GQ67                 CONDUIT     1.028     0  02:00      0.91    0.71    1.00
  GQ68                 CONDUIT     1.042     0  02:00      1.78    0.33    0.70
  GQ69                 CONDUIT     1.779     0  02:00      4.18    0.63    0.79
  GQ70                 CONDUIT     0.599     0  02:00      8.46    0.09    0.20
  GQ71                 CONDUIT     0.691     0  01:52      6.07    0.17    0.28
  GQ72                 CONDUIT     2.427     0  02:00      5.52    0.58    0.55
  GQ73                 CONDUIT     2.108     0  02:00     13.71    0.14    0.25
  GQ74                 CONDUIT     0.399     0  02:00      1.51    0.07    0.41
  GQ75                 CONDUIT     0.474     0  02:00      0.92    0.14    0.63
  GQ76                 CONDUIT     3.349     0  02:00      6.41    0.72    0.63
  GQ77                 CONDUIT     0.000     0  00:00      0.00    0.00    0.30
  GQ78                 CONDUIT     0.916     0  01:47      3.24    1.00    1.00
  GQ79                 CONDUIT     0.247     0  02:00      1.08    0.53    0.79
  GQ80                 CONDUIT     0.608     0  01:55      2.15    1.00    1.00
  GQ81                 CONDUIT     0.605     0  01:20      2.26    3.83    1.00
  GQ82                 CONDUIT     0.677     0  02:00      3.02    0.47    0.74
  GQ83                 CONDUIT     0.730     0  02:00      3.25    0.47    0.74
  GQ84                 CONDUIT     1.304     0  01:29      4.71    1.03    1.00
  GQ85                 CONDUIT     0.579     0  01:50      2.05    1.00    1.00
  GQ86                 CONDUIT     0.201     0  02:00      1.40    0.09    0.60
  GQ87                 CONDUIT     0.071     0  02:00      0.40    0.10    0.61
  GQ88                 CONDUIT     0.493     0  02:00      2.22    0.44    0.73
  GQ89                 CONDUIT     0.406     0  02:00      1.76    0.53    0.76
  GQ90                 CONDUIT     0.416     0  02:00      1.89    0.42    0.73
  GQ91                 CONDUIT     0.350     0  02:00      1.57    0.43    0.74
  GQ92                 CONDUIT     0.828     0  02:00      1.84    1.19    1.00
  GQ93                 CONDUIT     0.876     0  02:00      1.74    0.75    1.00
  GQ94                 CONDUIT     1.212     0  01:32      2.41    1.44    1.00
  GQ95                 CONDUIT     0.228     0  02:00      0.75    0.06    0.58
  GQ96                 CONDUIT     0.737     0  02:00      1.47    1.26    1.00
  GQ97                 CONDUIT     0.411     0  02:00      2.11    0.74    0.65
  GQ98                 CONDUIT     0.272     0  02:00      1.08    0.39    0.83
  GQ99                 CONDUIT     0.743     0  02:00      1.10    0.04    0.57
  GQ100                CONDUIT     0.532     0  02:00      3.02    0.91    0.61
  GQ101                CONDUIT     0.369     0  02:00      1.81    0.28    0.68
  GQ102                CONDUIT     1.537     0  02:00      3.85    0.47    0.74
  GQ103                CONDUIT     0.535     0  02:00      1.96    0.82    0.92
  GQ104                CONDUIT     1.253     0  02:00      4.77    0.91    0.88
  GQ105                CONDUIT     0.967     0  01:20      1.93    3.07    1.00
  GQ106                CONDUIT     0.401     0  02:00      1.84    0.40    0.72
  GQ107                CONDUIT     1.114     0  01:41      3.94    1.00    1.00
  GQ108                CONDUIT     0.829     0  01:54      1.65    1.00    1.00
  GQ109                CONDUIT     0.317     0  02:00      1.52    0.43    0.73
  GQ110                CONDUIT     0.497     0  02:00      1.43    0.07    0.59
  GQ111                CONDUIT     0.434     0  02:00      1.97    0.40    0.73
  GQ112                CONDUIT     1.370     0  02:00      3.24    0.24    0.40
  GQ113                CONDUIT     0.757     0  02:00      4.21    0.57    0.61
  GQ114                CONDUIT     0.455     0  02:00      0.78    0.19    0.70
  GQ115                CONDUIT     0.197     0  02:00      1.12    0.03    0.22
  GQ116                CONDUIT     0.282     0  02:00      0.61    0.04    0.57
  GQ117                CONDUIT     1.002     0  02:00      4.67    0.63    0.44
  GQ118                CONDUIT     0.379     0  02:00      3.09    0.13    0.46
  GQ119                CONDUIT     2.302     0  01:48      4.58    1.00    1.00
  GQ120                CONDUIT     0.000     0  00:00      0.00    0.00    0.50
  GQ121                CONDUIT     1.376     0  02:00      2.74    0.97    1.00
  GQ122                CONDUIT     0.571     0  02:00      2.23    0.10    0.61
  GQ123                CONDUIT     0.386     0  02:00      2.22    0.19    0.65
  GQ124                CONDUIT     0.239     0  02:00      1.17    0.10    0.46
  GQ125                CONDUIT     0.480     0  02:00      2.01    0.54    0.79
  GQ126                CONDUIT     0.590     0  02:00      2.53    0.56    0.77
  GQ127                CONDUIT     0.819     0  01:31      1.67    1.05    1.00
  GQ128                CONDUIT     2.011     0  02:00      3.12    0.44    0.73
  GQ129                CONDUIT     1.313     0  01:41      2.61    1.00    1.00
  GQ130                CONDUIT     1.073     0  01:36      3.79    1.00    1.00
  GQ131                CONDUIT     0.862     0  01:48      3.05    1.00    1.00
  
  
  ***************************
  Flow Classification Summary
  ***************************
  
  -------------------------------------------------------------------------------------
                      Adjusted    ---------- Fraction of Time in Flow Class ---------- 
                       /Actual         Up    Down  Sub   Sup   Up    Down  Norm  Inlet 
  Conduit               Length    Dry  Dry   Dry   Crit  Crit  Crit  Crit  Ltd   Ctrl  
  -------------------------------------------------------------------------------------
  GQ1                     1.00   0.02  0.00  0.00  0.07  0.90  0.00  0.00  0.01  0.00
  GQ2                     1.00   0.02  0.00  0.00  0.02  0.96  0.00  0.00  0.89  0.00
  GQ3                     1.00   0.02  0.00  0.00  0.00  0.98  0.00  0.00  0.28  0.00
  GQ4                     1.00   0.02  0.00  0.00  0.97  0.01  0.00  0.00  0.36  0.00
  GQ5                     1.00   0.02  0.00  0.00  0.98  0.00  0.00  0.00  0.74  0.00
  GQ6                     1.00   0.02  0.00  0.00  0.96  0.01  0.00  0.00  0.91  0.00
  GQ7                     1.00   0.02  0.00  0.00  0.41  0.56  0.00  0.00  0.14  0.00
  GQ8                     1.00   0.02  0.00  0.00  0.97  0.00  0.00  0.00  0.88  0.00
  GQ9                     1.00   0.02  0.00  0.00  0.65  0.33  0.00  0.00  0.91  0.00
  GQ10                    1.00   0.02  0.00  0.00  0.90  0.08  0.00  0.00  0.37  0.00
  GQ11                    1.00   0.02  0.00  0.00  0.23  0.75  0.00  0.00  0.89  0.00
  GQ12                    1.00   0.02  0.00  0.00  0.97  0.01  0.00  0.00  0.91  0.00
  GQ13                    1.00   0.02  0.00  0.00  0.98  0.00  0.00  0.00  0.91  0.00
  GQ14                    1.00   0.02  0.00  0.00  0.97  0.01  0.00  0.00  0.00  0.00
  GQ15                    1.00   0.02  0.00  0.00  0.00  0.97  0.00  0.00  0.01  0.00
  GQ16                    1.00   0.02  0.00  0.00  0.00  0.97  0.00  0.00  0.00  0.00
  GQ17                    1.00   0.02  0.00  0.00  0.81  0.16  0.00  0.00  0.91  0.00
  GQ18                    1.00   0.02  0.00  0.00  0.72  0.26  0.00  0.00  0.02  0.00
  GQ19                    1.00   0.02  0.00  0.00  0.66  0.31  0.00  0.00  0.91  0.00
  GQ20                    1.00   0.02  0.00  0.00  0.98  0.00  0.00  0.00  0.91  0.00
  GQ21                    1.00   0.02  0.00  0.00  0.60  0.37  0.00  0.00  0.91  0.00
  GQ22                    1.00   0.02  0.00  0.00  0.08  0.90  0.00  0.00  0.91  0.00
  GQ23                    1.00   0.02  0.00  0.00  0.05  0.93  0.00  0.00  0.25  0.00
  GQ24                    1.00   0.02  0.00  0.00  0.87  0.11  0.00  0.00  0.84  0.00
  GQ25                    1.00   0.02  0.00  0.00  0.00  0.97  0.00  0.00  0.01  0.00
  GQ26                    1.00   0.02  0.00  0.00  0.00  0.97  0.00  0.00  0.88  0.00
  GQ27                    1.00   0.02  0.00  0.00  0.79  0.19  0.00  0.00  0.75  0.00
  GQ28                    1.00   0.02  0.00  0.00  0.98  0.00  0.00  0.00  0.83  0.00
  GQ29                    1.00   0.02  0.00  0.00  0.97  0.00  0.00  0.00  0.03  0.00
  GQ30                    1.00   0.02  0.00  0.00  0.96  0.02  0.00  0.00  0.01  0.00
  GQ31                    1.00   0.02  0.00  0.00  0.97  0.00  0.00  0.00  0.82  0.00
  GQ32                    1.00   0.02  0.00  0.00  0.00  0.97  0.00  0.00  0.01  0.00
  GQ33                    1.00   0.02  0.00  0.00  0.49  0.48  0.00  0.00  0.69  0.00
  GQ34                    1.00   0.02  0.00  0.00  0.96  0.02  0.00  0.00  0.87  0.00
  GQ35                    1.00   0.02  0.00  0.00  0.28  0.70  0.00  0.00  0.71  0.00
  GQ36                    1.00   0.02  0.00  0.00  0.19  0.79  0.00  0.00  0.77  0.00
  GQ37                    1.00   0.02  0.00  0.00  0.98  0.00  0.00  0.00  0.76  0.00
  GQ38                    1.00   0.02  0.00  0.00  0.98  0.00  0.00  0.00  0.82  0.00
  GQ39                    1.00   0.02  0.00  0.00  0.96  0.02  0.00  0.00  0.77  0.00
  GQ40                    1.00   0.02  0.00  0.00  0.12  0.86  0.00  0.00  0.85  0.00
  GQ41                    1.00   0.02  0.00  0.00  0.98  0.00  0.00  0.00  0.71  0.00
  GQ42                    1.00   0.02  0.00  0.00  0.98  0.00  0.00  0.00  0.54  0.00
  GQ43                    1.00   0.02  0.00  0.00  0.25  0.73  0.00  0.00  0.76  0.00
  GQ44                    1.00   0.02  0.00  0.00  0.98  0.00  0.00  0.00  0.35  0.00
  GQ45                    1.00   0.02  0.00  0.00  0.48  0.49  0.00  0.00  0.91  0.00
  GQ46                    1.00   0.02  0.00  0.00  0.76  0.22  0.00  0.00  0.50  0.00
  GQ47                    1.00   0.02  0.00  0.00  0.98  0.00  0.00  0.00  0.91  0.00
  GQ48                    1.00   0.02  0.00  0.00  0.98  0.00  0.00  0.00  0.91  0.00
  GQ49                    1.00   0.02  0.00  0.00  0.68  0.29  0.00  0.00  0.91  0.00
  GQ50                    1.00   0.02  0.00  0.00  0.97  0.00  0.00  0.00  0.91  0.00
  GQ51                    1.00   0.02  0.00  0.00  0.09  0.89  0.00  0.00  0.77  0.00
  GQ52                    1.00   0.02  0.00  0.00  0.98  0.00  0.00  0.00  0.88  0.00
  GQ53                    1.00   0.02  0.00  0.00  0.98  0.00  0.00  0.00  0.57  0.00
  GQ54                    1.00   0.02  0.00  0.00  0.88  0.10  0.00  0.00  0.91  0.00
  GQ55                    1.00   0.02  0.00  0.00  0.93  0.05  0.00  0.00  0.91  0.00
  GQ56                    1.00   0.02  0.00  0.00  0.32  0.65  0.00  0.00  0.68  0.00
  GQ57                    1.00   0.02  0.00  0.00  0.98  0.00  0.00  0.00  0.91  0.00
  GQ58                    1.00   0.02  0.00  0.00  0.77  0.21  0.00  0.00  0.91  0.00
  GQ59                    1.00   0.02  0.00  0.00  0.98  0.00  0.00  0.00  0.57  0.00
  GQ60                    1.00   0.02  0.00  0.00  0.98  0.00  0.00  0.00  0.04  0.00
  GQ61                    1.00   0.02  0.00  0.00  0.97  0.00  0.00  0.00  0.91  0.00
  GQ62                    1.00   0.02  0.00  0.00  0.97  0.00  0.00  0.00  0.91  0.00
  GQ63                    1.00   0.02  0.00  0.00  0.96  0.01  0.00  0.00  0.91  0.00
  GQ64                    1.00   0.02  0.00  0.00  0.23  0.75  0.00  0.00  0.91  0.00
  GQ65                    1.00   0.02  0.00  0.00  0.98  0.00  0.00  0.00  0.91  0.00
  GQ66                    1.00   0.02  0.00  0.00  0.97  0.01  0.00  0.00  0.91  0.00
  GQ67                    1.00   0.02  0.00  0.00  0.98  0.00  0.00  0.00  0.01  0.00
  GQ68                    1.00   0.02  0.00  0.00  0.98  0.00  0.00  0.00  0.91  0.00
  GQ69                    1.00   0.02  0.00  0.00  0.69  0.28  0.00  0.00  0.91  0.00
  GQ70                    1.00   0.02  0.00  0.00  0.00  0.97  0.00  0.00  0.04  0.00
  GQ71                    1.00   0.02  0.00  0.00  0.00  0.98  0.00  0.00  0.13  0.00
  GQ72                    1.00   0.02  0.00  0.00  0.00  0.98  0.00  0.00  0.46  0.00
  GQ73                    1.00   0.02  0.00  0.00  0.00  0.97  0.00  0.00  0.00  0.00
  GQ74                    1.00   0.02  0.00  0.00  0.94  0.04  0.00  0.00  0.91  0.00
  GQ75                    1.00   0.02  0.00  0.00  0.98  0.00  0.00  0.00  0.91  0.00
  GQ76                    1.00   0.02  0.00  0.00  0.00  0.98  0.00  0.00  0.39  0.00
  GQ77                    1.00   0.02  0.98  0.00  0.00  0.00  0.00  0.00  0.00  0.00
  GQ78                    1.00   0.02  0.00  0.00  0.88  0.10  0.00  0.00  0.72  0.00
  GQ79                    1.00   0.02  0.00  0.00  0.98  0.00  0.00  0.00  0.02  0.00
  GQ80                    1.00   0.02  0.00  0.00  0.98  0.00  0.00  0.00  0.46  0.00
  GQ81                    1.00   0.02  0.00  0.00  0.97  0.00  0.00  0.00  0.09  0.00
  GQ82                    1.00   0.02  0.00  0.00  0.81  0.17  0.00  0.00  0.90  0.00
  GQ83                    1.00   0.02  0.00  0.00  0.00  0.98  0.00  0.00  0.90  0.00
  GQ84                    1.00   0.02  0.00  0.00  0.18  0.80  0.00  0.00  0.84  0.00
  GQ85                    1.00   0.02  0.00  0.00  0.98  0.00  0.00  0.00  0.53  0.00
  GQ86                    1.00   0.02  0.00  0.00  0.97  0.00  0.00  0.00  0.91  0.00
  GQ87                    1.00   0.02  0.00  0.00  0.98  0.00  0.00  0.00  0.91  0.00
  GQ88                    1.00   0.02  0.00  0.00  0.89  0.09  0.00  0.00  0.91  0.00
  GQ89                    1.00   0.02  0.00  0.00  0.97  0.01  0.00  0.00  0.90  0.00
  GQ90                    1.00   0.02  0.00  0.00  0.95  0.02  0.00  0.00  0.91  0.00
  GQ91                    1.00   0.02  0.00  0.00  0.97  0.01  0.00  0.00  0.87  0.00
  GQ92                    1.00   0.02  0.00  0.00  0.91  0.07  0.00  0.00  0.02  0.00
  GQ93                    1.00   0.02  0.00  0.00  0.98  0.00  0.00  0.00  0.82  0.00
  GQ94                    1.00   0.02  0.00  0.00  0.60  0.38  0.00  0.00  0.13  0.00
  GQ95                    1.00   0.02  0.00  0.00  0.98  0.00  0.00  0.00  0.91  0.00
  GQ96                    1.00   0.02  0.00  0.00  0.97  0.00  0.00  0.00  0.57  0.00
  GQ97                    1.00   0.02  0.00  0.00  0.02  0.96  0.00  0.00  0.59  0.00
  GQ98                    1.00   0.02  0.00  0.00  0.98  0.00  0.00  0.00  0.66  0.00
  GQ99                    1.00   0.02  0.00  0.00  0.97  0.01  0.00  0.00  0.91  0.00
  GQ100                   1.00   0.02  0.00  0.00  0.00  0.97  0.00  0.00  0.00  0.00
  GQ101                   1.00   0.02  0.00  0.00  0.97  0.01  0.00  0.00  0.91  0.00
  GQ102                   1.00   0.02  0.00  0.00  0.80  0.18  0.00  0.00  0.91  0.00
  GQ103                   1.00   0.02  0.00  0.00  0.97  0.00  0.00  0.00  0.83  0.00
  GQ104                   1.00   0.02  0.00  0.00  0.56  0.42  0.00  0.00  0.89  0.00
  GQ105                   1.00   0.02  0.00  0.00  0.98  0.00  0.00  0.00  0.02  0.00
  GQ106                   1.00   0.02  0.00  0.00  0.97  0.01  0.00  0.00  0.91  0.00
  GQ107                   1.00   0.02  0.00  0.00  0.60  0.38  0.00  0.00  0.81  0.00
  GQ108                   1.00   0.02  0.00  0.00  0.98  0.00  0.00  0.00  0.01  0.00
  GQ109                   1.00   0.02  0.00  0.00  0.95  0.03  0.00  0.00  0.90  0.00
  GQ110                   1.00   0.02  0.00  0.00  0.97  0.01  0.00  0.00  0.91  0.00
  GQ111                   1.00   0.02  0.00  0.00  0.97  0.01  0.00  0.00  0.86  0.00
  GQ112                   1.00   0.02  0.00  0.00  0.00  0.97  0.00  0.00  0.89  0.00
  GQ113                   1.00   0.02  0.00  0.00  0.00  0.98  0.00  0.00  0.89  0.00
  GQ114                   1.00   0.02  0.00  0.00  0.98  0.00  0.00  0.00  0.02  0.00
  GQ115                   1.00   0.02  0.00  0.00  0.96  0.02  0.00  0.00  0.91  0.00
  GQ116                   1.00   0.02  0.00  0.00  0.97  0.00  0.00  0.00  0.91  0.00
  GQ117                   1.00   0.02  0.00  0.00  0.00  0.97  0.00  0.00  0.00  0.00
  GQ118                   1.00   0.02  0.00  0.00  0.35  0.62  0.00  0.00  0.90  0.00
  GQ119                   1.00   0.02  0.00  0.00  0.69  0.29  0.00  0.00  0.66  0.00
  GQ120                   1.00   0.02  0.02  0.00  0.96  0.00  0.00  0.00  0.00  0.00
  GQ121                   1.00   0.02  0.00  0.00  0.97  0.01  0.00  0.00  0.02  0.00
  GQ122                   1.00   0.02  0.00  0.00  0.96  0.02  0.00  0.00  0.91  0.00
  GQ123                   1.00   0.02  0.00  0.00  0.87  0.11  0.00  0.00  0.91  0.00
  GQ124                   1.00   0.02  0.00  0.00  0.96  0.02  0.00  0.00  0.91  0.00
  GQ125                   1.00   0.02  0.00  0.00  0.96  0.01  0.00  0.00  0.86  0.00
  GQ126                   1.00   0.02  0.00  0.00  0.86  0.12  0.00  0.00  0.91  0.00
  GQ127                   1.00   0.02  0.00  0.00  0.98  0.00  0.00  0.00  0.46  0.00
  GQ128                   1.00   0.02  0.00  0.00  0.30  0.67  0.00  0.00  0.88  0.00
  GQ129                   1.00   0.02  0.00  0.00  0.98  0.00  0.00  0.00  0.38  0.00
  GQ130                   1.00   0.02  0.00  0.00  0.81  0.17  0.00  0.00  0.38  0.00
  GQ131                   1.00   0.02  0.00  0.00  0.84  0.14  0.00  0.00  0.75  0.00
  
  
  *************************
  Conduit Surcharge Summary
  *************************
  
  ----------------------------------------------------------------------------
                                                           Hours        Hours 
                         --------- Hours Full --------   Above Full   Capacity
  Conduit                Both Ends  Upstream  Dnstream   Normal Flow   Limited
  ----------------------------------------------------------------------------
  GQ4                         5.40      5.40      9.68      0.01         0.01
  GQ5                         0.92      0.92      9.66      0.01         0.01
  GQ6                         0.01      0.01      0.92      0.01         0.01
  GQ7                         2.75      2.75      3.78      0.01         0.01
  GQ8                         0.01      0.01      2.75      0.01         0.01
  GQ9                         0.01      0.01      9.75      0.01         0.01
  GQ10                        5.73      5.73      9.77      0.06         0.01
  GQ12                        0.01      0.01      7.39      0.01         0.01
  GQ13                        0.01      0.01      4.32      0.01         0.01
  GQ18                        0.01      0.01      6.20      6.71         0.01
  GQ20                        0.01      0.01      0.64      0.01         0.01
  GQ21                        0.01      0.01      0.64      0.01         0.01
  GQ24                        0.01      0.01      9.71      0.01         0.01
  GQ25                        0.01      0.27      0.01      0.33         0.01
  GQ26                        0.01      0.01      0.34      0.01         0.01
  GQ27                        0.34      0.34      9.65      0.01         0.01
  GQ28                        0.01      0.01      9.66      0.01         0.01
  GQ29                        9.58      9.58      9.66      0.01         0.01
  GQ30                        9.65      9.65      9.69      0.01         0.01
  GQ31                        0.27      0.27      9.78      0.01         0.01
  GQ32                        0.01      1.56      0.01      0.98         0.01
  GQ33                        1.56      1.56      9.78      0.01         0.01
  GQ34                        0.01      0.01      1.56      0.01         0.01
  GQ35                        1.06      1.09      1.56      0.13         0.01
  GQ36                        1.00      1.09      1.00      1.23         1.00
  GQ37                        0.01      0.01      9.75      0.01         0.01
  GQ38                        0.01      0.01      9.75      0.01         0.01
  GQ39                        0.68      0.68      7.39      0.01         0.01
  GQ40                        0.01      0.01      0.68      0.01         0.01
  GQ41                        0.01      0.01      9.66      0.01         0.01
  GQ42                        2.63      2.63      9.68      0.01         0.01
  GQ43                        1.52      1.52      2.63      0.07         0.01
  GQ44                        5.24      5.24      6.20      0.01         0.01
  GQ45                        0.01      0.01      3.27      0.01         0.01
  GQ46                        3.27      3.27      5.24      0.01         0.01
  GQ47                        0.01      0.01      9.73      0.01         0.01
  GQ48                        0.01      0.01      9.73      0.01         0.01
  GQ49                        0.01      0.01      9.73      0.01         0.01
  GQ50                        0.01      0.01      0.62      0.01         0.01
  GQ51                        0.01      0.62      0.01      0.75         0.01
  GQ52                        0.01      0.01      9.58      0.01         0.01
  GQ53                        2.59      2.59      9.67      0.01         0.01
  GQ54                        0.01      0.01      9.74      0.01         0.01
  GQ55                        0.01      0.01      9.74      0.01         0.01
  GQ56                        2.00      2.06      2.75      0.50         0.25
  GQ57                        0.01      0.01      2.06      0.01         0.01
  GQ58                        0.01      0.01      9.65      0.01         0.01
  GQ59                        2.63      2.63      9.65      0.01         0.01
  GQ60                        0.97      0.97      2.99      0.01         0.01
  GQ61                        0.01      0.01      9.51      0.01         0.01
  GQ62                        0.01      0.01      9.53      0.01         0.01
  GQ63                        0.01      0.01      9.54      0.01         0.01
  GQ66                        0.01      0.01      9.57      0.01         0.01
  GQ67                        9.52      9.52      9.53      0.01         0.01
  GQ68                        0.01      0.01      9.61      0.01         0.01
  GQ69                        0.01      0.01      9.71      0.01         0.01
  GQ75                        0.01      0.01      9.62      0.01         0.01
  GQ78                        1.42      1.42      9.74      0.01         0.01
  GQ79                        0.01      0.01      9.74      0.01         0.01
  GQ80                        1.42      1.42      6.96      0.01         0.01
  GQ81                        6.88      6.96      7.39      6.31         1.64
  GQ82                        0.01      0.01      7.39      0.01         0.01
  GQ83                        0.01      0.01      0.33      0.01         0.01
  GQ84                        0.57      0.57      2.55      0.08         0.01
  GQ85                        0.57      0.57      9.81      0.01         0.01
  GQ86                        0.01      0.01      9.74      0.01         0.01
  GQ87                        0.01      0.01      9.74      0.01         0.01
  GQ88                        0.01      0.01      9.73      0.01         0.01
  GQ89                        0.01      0.01      9.65      0.01         0.01
  GQ90                        0.01      0.01      9.59      0.01         0.01
  GQ91                        0.01      0.01      9.67      0.01         0.01
  GQ92                        0.50      0.50      0.66      0.47         0.38
  GQ93                        0.66      0.66      1.42      0.01         0.01
  GQ94                        1.40      1.42      1.52      1.19         1.04
  GQ95                        0.01      0.01      9.78      0.01         0.01
  GQ96                        0.47      0.47      0.50      0.59         0.39
  GQ98                        0.01      0.01      9.71      0.01         0.01
  GQ99                        0.01      0.01      9.55      0.01         0.01
  GQ101                       0.01      0.01      9.67      0.01         0.01
  GQ102                       0.01      0.01      9.68      0.01         0.01
  GQ103                       0.01      0.01      9.70      0.01         0.01
  GQ104                       0.01      0.01      9.70      0.01         0.01
  GQ105                       9.65      9.65      9.68      7.27         0.01
  GQ106                       0.01      0.01      9.67      0.01         0.01
  GQ107                       0.68      0.68      9.67      0.01         0.01
  GQ108                       6.48      6.48      9.65      0.01         0.01
  GQ109                       0.01      0.01      0.68      0.01         0.01
  GQ110                       0.01      0.01      9.62      0.01         0.01
  GQ111                       0.01      0.01      9.68      0.01         0.01
  GQ114                       0.01      0.01      9.75      0.01         0.01
  GQ116                       0.01      0.01      9.75      0.01         0.01
  GQ119                       1.74      1.74      9.70      0.01         0.01
  GQ120                       0.01      0.01      9.69      0.01         0.01
  GQ121                       9.65      9.65      9.70      0.01         0.01
  GQ122                       0.01      0.01      9.65      0.01         0.01
  GQ123                       0.01      0.01      9.66      0.01         0.01
  GQ125                       0.01      0.01      9.67      0.01         0.01
  GQ126                       0.01      0.01      9.67      0.01         0.01
  GQ127                       1.52      1.52      1.74      0.03         0.01
  GQ128                       0.01      0.01      1.33      0.01         0.01
  GQ129                       3.78      3.78      9.71      0.01         0.01
  GQ130                       4.22      4.22      9.83      0.01         0.01
  GQ131                       0.62      0.62      9.79      0.01         0.01
  

  Analysis begun on:  Wed Mar 29 19:13:40 2023
  Analysis ended on:  Wed Mar 29 19:14:02 2023
  Total elapsed time: 00:00:22