
  OWA STORM WATER MANAGEMENT MODEL - VERSION v5.1.14 (OWA 2022-07-31)
  --------------------------------------------------------------

  INP file created by DSDAConvertToSwmmTools 
  version 0.0.1 EcoVista 
  Title/Notes: 
  
  
  *********************************************************
  NOTE: The summary statistics displayed in this report are
  based on results found at every computational time step,  
  not just on results from each reporting time step.
  *********************************************************
  
  ****************
  Analysis Options
  ****************
  Flow Units ............... CMS
  Process Models:
    Rainfall/Runoff ........ YES
    RDII ................... NO
    Snowmelt ............... NO
    Groundwater ............ NO
    Flow Routing ........... YES
    Ponding Allowed ........ NO
    Water Quality .......... NO
  Infiltration Method ...... GREEN_AMPT
  Flow Routing Method ...... DYNWAVE
  Surcharge Method ......... EXTRAN
  Starting Date ............ 07/15/2020 00:00:00
  Ending Date .............. 07/15/2020 17:00:00
  Antecedent Dry Days ...... 0.0
  Report Time Step ......... 00:30:00
  Wet Time Step ............ 00:05:00
  Dry Time Step ............ 01:00:00
  Routing Time Step ........ 30.00 sec
  Variable Time Step ....... YES
  Maximum Trials ........... 8
  Number of Threads ........ 1
  Head Tolerance ........... 0.001500 m
  
  
  **************************        Volume         Depth
  Runoff Quantity Continuity     hectare-m            mm
  **************************     ---------       -------
  Total Precipitation ......       435.619       109.000
  Evaporation Loss .........         6.021         1.506
  Infiltration Loss ........       116.417        29.130
  Surface Runoff ...........       306.643        76.728
  Final Storage ............         6.811         1.704
  Continuity Error (%) .....        -0.063
  
  
  **************************        Volume        Volume
  Flow Routing Continuity        hectare-m      10^6 ltr
  **************************     ---------     ---------
  Dry Weather Inflow .......         0.000         0.000
  Wet Weather Inflow .......       306.585      3065.886
  Groundwater Inflow .......         0.000         0.000
  RDII Inflow ..............         0.000         0.000
  External Inflow ..........         0.000         0.000
  External Outflow .........        26.015       260.148
  Flooding Loss ............       279.229      2792.317
  Evaporation Loss .........         0.000         0.000
  Exfiltration Loss ........         0.000         0.000
  Initial Stored Volume ....         0.000         0.000
  Final Stored Volume ......         1.216        12.161
  Continuity Error (%) .....         0.041
  
  
  *************************
  Highest Continuity Errors
  *************************
  Node jd51 (1.78%)
  Node jd64 (1.45%)
  Node jd59 (1.40%)
  Node jd31 (1.33%)
  Node jd41 (1.24%)
  
  
  ***************************
  Time-Step Critical Elements
  ***************************
  Link GQ73 (97.06%)
  
  
  ********************************
  Highest Flow Instability Indexes
  ********************************
  Link GQ67 (18)
  Link GQ114 (12)
  Link GQ94 (5)
  Link GQ93 (4)
  Link GQ96 (4)
  
  
  *************************
  Routing Time Step Summary
  *************************
  Minimum Time Step           :     1.48 sec
  Average Time Step           :     6.54 sec
  Maximum Time Step           :    30.00 sec
  Percent in Steady State     :    -0.00
  Average Iterations per Step :     4.86
  Percent Not Converging      :    23.50
  
  
  ***************************
  Subcatchment Runoff Summary
  ***************************
  
  ------------------------------------------------------------------------------------------------------------------------------
                            Total      Total      Total      Total     Imperv       Perv      Total       Total     Peak  Runoff
                           Precip      Runon       Evap      Infil     Runoff     Runoff     Runoff      Runoff   Runoff   Coeff
  Subcatchment                 mm         mm         mm         mm         mm         mm         mm    10^6 ltr      CMS
  ------------------------------------------------------------------------------------------------------------------------------
  1                        109.00       0.00       0.90      61.07      46.18       0.00      46.18       18.28     0.99   0.424
  2                        109.00       0.00       1.62      23.20      82.27       0.00      82.27       74.40     4.04   0.755
  3                        109.00       0.00       1.68      19.89      85.64       0.00      85.64       34.27     1.86   0.786
  4                        109.00       0.00       1.73      17.08      88.44       0.00      88.44        7.42     0.40   0.811
  5                        109.00       0.00       1.53      27.76      78.18       0.00      78.18        9.67     0.52   0.717
  6                        109.00       0.00       1.47      31.24      74.87       0.00      74.87        6.96     0.38   0.687
  7                        109.00       0.00       1.53      27.89      77.87       0.00      77.87       33.95     1.84   0.714
  8                        109.00       0.00       1.94       6.10      98.85       0.00      98.85       13.76     0.75   0.907
  9                        109.00       0.00       2.00       3.05     101.82       0.00     101.82       11.91     0.65   0.934
  10                       109.00       0.00       1.72      17.73      87.73       0.00      87.73       19.76     1.07   0.805
  11                       109.00       0.00       1.86      10.42      94.67       0.00      94.67       46.94     2.55   0.869
  12                       109.00       0.00       1.46      31.34      74.66       0.00      74.66       36.43     1.98   0.685
  13                       109.00       0.00       1.83      11.75      93.41       0.00      93.41       42.25     2.29   0.857
  14                       109.00       0.00       1.83      11.89      93.36       0.00      93.36       17.62     0.96   0.857
  15                       109.00       0.00       1.69      19.16      86.33       0.00      86.33       29.18     1.58   0.792
  16                       109.00       0.00       1.76      15.84      89.50       0.00      89.50       26.44     1.44   0.821
  17                       109.00       0.00       1.65      21.76      83.84       0.00      83.84       35.08     1.90   0.769
  18                       109.00       0.00       1.89       8.58      96.43       0.00      96.43       39.82     2.16   0.885
  19                       109.00       0.00       1.89       8.97      96.04       0.00      96.04       21.59     1.17   0.881
  20                       109.00       0.00       1.88       9.57      95.34       0.00      95.34       51.16     2.78   0.875
  21                       109.00       0.00       2.00       3.21     101.57       0.00     101.57       31.87     1.73   0.932
  22                       109.00       0.00       1.96       5.15      99.68       0.00      99.68       12.26     0.67   0.915
  23                       109.00       0.00       1.80      13.33      91.83       0.00      91.83       52.57     2.86   0.842
  24                       109.00       0.00       1.74      16.64      88.64       0.00      88.64       15.72     0.85   0.813
  25                       109.00       0.00       1.86      10.23      94.93       0.00      94.93       19.22     1.04   0.871
  26                       109.00       0.00       1.59      24.87      80.71       0.00      80.71       28.33     1.54   0.740
  27                       109.00       0.00       1.90       8.16      96.69       0.00      96.69       40.86     2.22   0.887
  28                       109.00       0.00       1.94       6.01      98.82       0.00      98.82       46.72     2.54   0.907
  29                       109.00       0.00       1.74      16.92      88.54       0.00      88.54       20.67     1.12   0.812
  30                       109.00       0.00       1.99       3.68     101.30       0.00     101.30        7.26     0.39   0.929
  31                       109.00       0.00       2.01       2.29     102.48       0.00     102.48       22.59     1.23   0.940
  32                       109.00       0.00       1.96       4.85     100.00       0.00     100.00       43.21     2.35   0.917
  33                       109.00       0.00       1.99       3.55     101.22       0.00     101.22       35.66     1.94   0.929
  34                       109.00       0.00       1.85      11.04      94.09       0.00      94.09       27.58     1.50   0.863
  35                       109.00       0.00       1.90       8.22      96.78       0.00      96.78       40.14     2.18   0.888
  36                       109.00       0.00       1.57      25.96      79.85       0.00      79.85       31.42     1.70   0.733
  37                       109.00       0.00       1.94       5.88      99.01       0.00      99.01       21.97     1.19   0.908
  38                       109.00       0.00       1.82      12.34      92.86       0.00      92.86       35.42     1.92   0.852
  39                       109.00       0.00       1.65      21.67      83.94       0.00      83.94       35.45     1.92   0.770
  40                       109.00       0.00       1.83      11.79      93.38       0.00      93.38       21.35     1.16   0.857
  41                       109.00       0.00       1.87       9.59      95.54       0.00      95.54       18.84     1.02   0.877
  42                       109.00       0.00       1.87       9.69      95.26       0.00      95.26       23.53     1.28   0.874
  43                       109.00       0.00       1.58      25.49      80.19       0.00      80.19       63.39     3.44   0.736
  44                       109.00       0.00       1.68      19.87      85.55       0.00      85.55       41.35     2.25   0.785
  45                       109.00       0.00       1.58      25.28      80.43       0.00      80.43       58.19     3.16   0.738
  46                       109.00       0.00       1.52      28.17      77.77       0.00      77.77       38.88     2.11   0.713
  47                       109.00       0.00       1.60      24.10      81.55       0.00      81.55       95.08     5.16   0.748
  48                       109.00       0.00       1.91       7.54      97.26       0.00      97.26       56.44     3.07   0.892
  49                       109.00       0.00       1.75      16.15      89.04       0.00      89.04       60.28     3.28   0.817
  50                       109.00       0.00       1.94       6.14      98.48       0.00      98.48       38.71     2.10   0.904
  51                       109.00       0.00       1.86      10.59      94.27       0.00      94.27       17.64     0.96   0.865
  52                       109.00       0.00       0.90      61.15      46.14       0.00      46.14       47.35     2.56   0.423
  53                       109.00       0.00       1.31      39.69      66.73       0.00      66.73       71.08     3.85   0.612
  54                       109.00       0.00       1.61      23.47      82.20       0.00      82.20       20.04     1.09   0.754
  55                       109.00       0.00       0.92      60.03      47.21       0.00      47.21       37.25     2.02   0.433
  56                       109.00       0.00       0.35      90.54      17.88       0.00      17.88       14.57     0.78   0.164
  57                       109.00       0.00       1.83      12.14      92.88       0.00      92.88       77.17     4.19   0.852
  58                       109.00       0.00       1.69      19.25      86.24       0.00      86.24       14.20     0.77   0.791
  59                       109.00       0.00       1.65      21.40      84.29       0.00      84.29       10.73     0.58   0.773
  60                       109.00       0.00       0.62      76.17      31.71       0.00      31.71        9.08     0.49   0.291
  61                       109.00       0.00       0.96      57.94      49.12       0.00      49.12       18.51     1.00   0.451
  62                       109.00       0.00       1.34      37.93      68.29       0.00      68.29       80.03     4.34   0.627
  63                       109.00       0.00       1.83      12.02      92.91       0.00      92.91      179.68     9.76   0.852
  64                       109.00       0.00       1.36      36.65      69.64       0.00      69.64       14.95     0.81   0.639
  65                       109.00       0.00       1.86      10.63      94.25       0.00      94.25       63.39     3.44   0.865
  66                       109.00       0.00       1.46      31.53      74.38       0.00      74.38       18.95     1.03   0.682
  67                       109.00       0.00       1.37      36.59      69.73       0.00      69.73       22.54     1.22   0.640
  68                       109.00       0.00       1.64      22.14      83.51       0.00      83.51        9.28     0.50   0.766
  69                       109.00       0.00       0.96      58.02      49.22       0.00      49.22       15.75     0.85   0.452
  70                       109.00       0.00       1.35      37.26      68.97       0.00      68.97       56.74     3.08   0.633
  71                       109.00       0.00       1.67      20.37      85.20       0.00      85.20       10.45     0.57   0.782
  72                       109.00       0.00       1.76      15.56      89.82       0.00      89.82       11.19     0.61   0.824
  73                       109.00       0.00       1.60      24.34      81.46       0.00      81.46       13.53     0.73   0.747
  74                       109.00       0.00       1.52      28.31      77.64       0.00      77.64       16.71     0.91   0.712
  75                       109.00       0.00       1.69      19.31      86.23       0.00      86.23       12.43     0.67   0.791
  76                       109.00       0.00       1.78      14.64      90.73       0.00      90.73        8.79     0.48   0.832
  77                       109.00       0.00       1.90       8.38      96.66       0.00      96.66       10.46     0.57   0.887
  78                       109.00       0.00       1.83      11.93      93.25       0.00      93.25       10.25     0.56   0.855
  79                       109.00       0.00       0.80      66.42      41.08       0.00      41.08       43.57     2.36   0.377
  80                       109.00       0.00       1.51      28.76      77.05       0.00      77.05       48.23     2.62   0.707
  81                       109.00       0.00       1.54      27.50      78.25       0.00      78.25       34.11     1.85   0.718
  82                       109.00       0.00       1.47      30.95      74.95       0.00      74.95       68.72     3.73   0.688
  83                       109.00       0.00       1.84      11.44      93.78       0.00      93.78       11.46     0.62   0.860
  84                       109.00       0.00       1.74      16.93      88.46       0.00      88.46       10.56     0.57   0.812
  85                       109.00       0.00       2.04       0.83     103.96       0.00     103.96        9.67     0.52   0.954
  86                       109.00       0.00       1.88       9.20      95.88       0.00      95.88       14.12     0.77   0.880
  87                       109.00       0.00       2.01       2.33     102.40       0.00     102.40       13.47     0.73   0.939
  88                       109.00       0.00       1.80      13.59      91.72       0.00      91.72        8.78     0.48   0.841
  89                       109.00       0.00       1.89       8.76      96.33       0.00      96.33       18.55     1.01   0.884
  90                       109.00       0.00       2.06       0.02     104.79       0.00     104.79        1.20     0.07   0.961
  91                       109.00       0.00       1.71      18.26      87.02       0.00      87.02       18.97     1.03   0.798
  92                       109.00       0.00       1.90       8.48      96.58       0.00      96.58       12.07     0.66   0.886
  93                       109.00       0.00       1.55      27.08      78.73       0.00      78.73       40.30     2.19   0.722
  94                       109.00       0.00       1.39      35.31      71.03       0.00      71.03        4.98     0.27   0.652
  95                       109.00       0.00       2.05       0.12     104.63       0.00     104.63        2.28     0.12   0.960
  96                       109.00       0.00       1.66      21.11      84.52       0.00      84.52       10.33     0.56   0.775
  97                       109.00       0.00       2.01       2.31     102.50       0.00     102.50       10.18     0.55   0.940
  98                       109.00       0.00       1.67      20.59      85.02       0.00      85.02       10.48     0.57   0.780
  99                       109.00       0.00       0.83      65.21      42.27       0.00      42.27       15.69     0.85   0.388
  100                      109.00       0.00       0.92      60.32      46.99       0.00      46.99       12.05     0.65   0.431
  101                      109.00       0.00       0.94      59.12      48.11       0.00      48.11       23.57     1.27   0.441
  102                      109.00       0.00       1.53      27.72      78.15       0.00      78.15       19.05     1.03   0.717
  103                      109.00       0.00       0.51      81.83      26.28       0.00      26.28        9.56     0.52   0.241
  104                      109.00       0.00       0.35      90.62      17.77       0.00      17.77       17.22     0.93   0.163
  105                      109.00       0.00       1.69      19.36      86.21       0.00      86.21       11.28     0.61   0.791
  106                      109.00       0.00       0.92      60.44      46.84       0.00      46.84       11.43     0.62   0.430
  
  
  ******************
  Node Depth Summary
  ******************
  
  ---------------------------------------------------------------------------------
                                 Average  Maximum  Maximum  Time of Max    Reported
                                   Depth    Depth      HGL   Occurrence   Max Depth
  Node                 Type       Meters   Meters   Meters  days hr:min      Meters
  ---------------------------------------------------------------------------------
  jd1                  JUNCTION     0.16     0.25   273.25     0  06:00        0.25
  jd2                  JUNCTION     1.41     3.00   270.00     0  04:24        3.00
  jd3                  JUNCTION     2.83     3.00   266.00     0  03:27        3.00
  jd4                  JUNCTION     2.31     3.00   270.00     0  04:08        3.00
  jd5                  JUNCTION     0.11     0.18   274.18     0  06:00        0.18
  jd6                  JUNCTION     0.14     0.24   275.24     0  06:00        0.24
  jd7                  JUNCTION     0.42     0.62   264.72     0  06:00        0.62
  jd8                  JUNCTION     2.45     3.00   267.00     0  03:51        3.00
  jd9                  JUNCTION     2.30     3.00   268.00     0  03:51        3.00
  jd10                 JUNCTION     2.84     3.00   273.00     0  03:21        3.00
  jd11                 JUNCTION     0.13     0.21   282.21     0  06:00        0.21
  jd12                 JUNCTION     2.85     3.00   272.00     0  03:15        3.00
  jd13                 JUNCTION     0.16     0.28   289.28     0  06:00        0.28
  jd14                 JUNCTION     1.23     3.00   283.00     0  04:30        3.00
  jd15                 JUNCTION     0.39     0.67   278.67     0  06:00        0.67
  jd16                 JUNCTION     0.42     0.77   274.77     0  06:00        0.77
  jd17                 JUNCTION     2.61     3.00   278.80     0  03:42        3.00
  jd18                 JUNCTION     1.33     3.00   282.00     0  04:32        3.00
  jd19                 JUNCTION     2.06     3.00   270.00     0  04:06        3.00
  jd20                 JUNCTION     0.26     0.44   273.44     0  06:00        0.44
  jd21                 JUNCTION     2.83     3.00   273.00     0  03:25        3.00
  jd22                 JUNCTION     2.33     3.00   275.00     0  04:07        3.00
  jd23                 JUNCTION     0.72     3.00   281.00     0  05:12        3.00
  jd24                 JUNCTION     0.18     0.31   285.31     0  06:00        0.31
  jd25                 JUNCTION     0.59     3.00   282.00     0  05:16        2.58
  jd26                 JUNCTION     1.34     3.00   288.00     0  04:26        3.00
  jd27                 JUNCTION     0.56     3.00   294.00     0  05:14        2.96
  jd28                 JUNCTION     2.86     3.00   290.00     0  03:06        3.00
  jd29                 JUNCTION     0.13     0.21   299.21     0  06:00        0.21
  jd30                 JUNCTION     0.17     0.27   290.27     0  06:00        0.27
  jd31                 JUNCTION     1.31     3.00   275.00     0  03:42        2.25
  jd32                 JUNCTION     2.86     3.00   275.00     0  03:11        3.00
  jd33                 JUNCTION     0.26     0.45   289.45     0  06:00        0.45
  jd34                 JUNCTION     0.75     3.00   297.00     0  05:05        3.00
  jd35                 JUNCTION     2.88     3.00   292.00     0  02:52        3.00
  jd36                 JUNCTION     1.55     3.00   302.00     0  04:18        3.00
  jd37                 JUNCTION     1.51     3.00   306.00     0  04:18        3.00
  jd38                 JUNCTION     0.79     3.00   300.00     0  05:10        2.64
  jd39                 JUNCTION     2.83     3.00   297.00     0  03:26        3.00
  jd40                 JUNCTION     2.01     3.00   302.00     0  04:12        3.00
  jd41                 JUNCTION     2.79     3.00   296.00     0  03:54        3.00
  jd42                 JUNCTION     0.27     0.49   305.49     0  06:00        0.49
  jd43                 JUNCTION     1.89     3.00   300.00     0  04:10        3.00
  jd44                 JUNCTION     1.93     3.00   286.00     0  04:13        3.00
  jd45                 JUNCTION     2.85     3.00   282.00     0  03:19        3.00
  jd46                 JUNCTION     0.72     3.00   278.00     0  05:16        3.00
  jd47                 JUNCTION     0.21     0.34   315.34     0  06:00        0.34
  jd48                 JUNCTION     0.14     0.25   325.25     0  06:00        0.25
  jd49                 JUNCTION     0.56     3.00   292.00     0  05:20        3.00
  jd50                 JUNCTION     2.87     3.00   278.00     0  03:03        3.00
  jd51                 JUNCTION     2.78     3.00   313.00     0  03:58        3.00
  jd52                 JUNCTION     1.12     3.00   326.00     0  04:25        2.03
  jd53                 JUNCTION     1.56     3.00   325.00     0  04:22        3.00
  jd54                 JUNCTION     0.39     0.76   326.76     0  06:00        0.76
  jd55                 JUNCTION     2.11     3.00   325.00     0  04:05        3.00
  jd56                 JUNCTION     0.26     0.48   327.48     0  06:00        0.48
  jd59                 JUNCTION     2.76     3.00   320.80     0  04:03        3.00
  jd60                 JUNCTION     2.85     3.00   319.00     0  03:14        3.00
  jd61                 JUNCTION     0.19     0.33   329.33     0  06:00        0.33
  jd62                 JUNCTION     0.08     0.14   335.14     0  06:00        0.14
  jd63                 JUNCTION     0.09     0.15   324.15     0  06:00        0.15
  jd64                 JUNCTION     2.63     3.00   321.00     0  04:03        2.99
  jd65                 JUNCTION     2.50     3.00   307.00     0  03:55        3.00
  jd66                 JUNCTION     2.84     3.00   304.00     0  03:23        3.00
  jd69                 JUNCTION     0.32     0.57   333.57     0  06:00        0.57
  jd79                 JUNCTION     2.82     3.00   274.00     0  03:09        3.00
  jd80                 JUNCTION     2.63     3.00   279.00     0  03:34        3.00
  jd81                 JUNCTION     0.20     0.35   288.35     0  06:00        0.35
  jd83                 JUNCTION     2.88     3.00   323.00     0  02:50        3.00
  jd84                 JUNCTION     0.94     3.00   326.00     0  05:02        3.00
  jd85                 JUNCTION     2.84     3.00   324.00     0  03:21        3.00
  jd87                 JUNCTION     2.85     3.00   322.00     0  03:18        3.00
  jd89                 JUNCTION     0.22     0.42   324.42     0  06:00        0.42
  jd90                 JUNCTION     0.19     0.32   328.32     0  06:00        0.32
  jd92                 JUNCTION     0.20     0.41   326.41     0  06:00        0.41
  jd93                 JUNCTION     1.55     3.00   327.00     0  04:20        3.00
  jd94                 JUNCTION     0.91     3.00   329.20     0  04:33        2.31
  jd95                 JUNCTION     1.03     3.00   330.00     0  04:37        2.85
  jd96                 JUNCTION     2.85     3.00   308.00     0  03:14        3.00
  jd97                 JUNCTION     1.06     3.00   330.20     0  04:37        3.00
  jd98                 JUNCTION     0.26     0.50   329.50     0  06:00        0.50
  jd99                 JUNCTION     2.84     3.00   327.00     0  03:24        3.00
  jd101                JUNCTION     0.15     0.24   321.24     0  06:00        0.24
  jd102                JUNCTION     0.65     3.00   327.00     0  05:09        3.00
  jd103                JUNCTION     0.15     0.26   318.26     0  06:00        0.26
  jd106                JUNCTION     2.80     3.00   287.00     0  03:42        3.00
  jd107                JUNCTION     0.28     0.48   332.48     0  06:00        0.48
  jd108                JUNCTION     1.28     1.63   327.63     0  06:00        1.63
  jd109                JUNCTION     0.22     0.40   343.40     0  06:00        0.40
  jd110                JUNCTION     2.84     3.00   327.00     0  03:21        3.00
  jd111                JUNCTION     0.10     0.16   344.16     0  06:00        0.16
  jd112                JUNCTION     0.12     0.20   334.20     0  06:00        0.20
  jd113                JUNCTION     0.13     0.23   348.23     0  06:00        0.23
  jd114                JUNCTION     2.85     3.00   317.00     0  03:17        3.00
  jd117                JUNCTION     1.75     3.00   319.00     0  03:26        3.00
  jd118                JUNCTION     0.12     0.21   330.21     0  06:00        0.21
  jd120                JUNCTION     0.23     0.49   327.49     0  06:00        0.49
  jd121                JUNCTION     0.22     0.41   320.41     0  06:00        0.41
  jd122                JUNCTION     2.83     3.00   276.00     0  03:25        3.00
  jd123                JUNCTION     2.83     3.00   276.20     0  03:28        3.00
  jd124                JUNCTION     2.90     3.00   271.00     0  02:37        3.00
  jd125                JUNCTION     2.21     3.00   278.00     0  04:07        3.00
  jd126                JUNCTION     2.88     3.00   275.00     0  02:50        3.00
  jd135                JUNCTION     0.19     0.37   289.37     0  06:00        0.37
  jd136                JUNCTION     0.36     0.69   341.69     0  06:00        0.69
  psk1                 OUTFALL      0.12     0.20   279.20     0  06:00        0.20
  psk2                 OUTFALL      0.17     0.27   270.27     0  06:00        0.27
  psk3                 OUTFALL      0.42     0.77   271.77     0  06:00        0.77
  psk4                 OUTFALL      0.00     0.00   280.00     0  00:00        0.00
  psk5                 OUTFALL      0.16     0.25   263.25     0  06:00        0.25
  psk6                 OUTFALL      0.11     0.18   259.18     0  06:00        0.18
  psk7                 OUTFALL      0.42     0.62   262.62     0  06:00        0.62
  psk8                 OUTFALL      0.00     0.00   317.00     0  00:00        0.00
  
  
  *******************
  Node Inflow Summary
  *******************
  
  -------------------------------------------------------------------------------------------------
                                  Maximum  Maximum                  Lateral       Total        Flow
                                  Lateral    Total  Time of Max      Inflow      Inflow     Balance
                                   Inflow   Inflow   Occurrence      Volume      Volume       Error
  Node                 Type           CMS      CMS  days hr:min    10^6 ltr    10^6 ltr     Percent
  -------------------------------------------------------------------------------------------------
  jd1                  JUNCTION     0.990    1.332     0  06:00        18.3        27.8       0.018
  jd2                  JUNCTION     1.539    2.006     0  06:00        28.3        38.1       0.035
  jd3                  JUNCTION     1.844    3.562     0  06:00        33.9        87.5       0.457
  jd4                  JUNCTION     2.221    2.459     0  06:00        40.9        45.5       0.044
  jd5                  JUNCTION     0.647    1.023     0  06:00        11.9        19.9      -0.000
  jd6                  JUNCTION     0.747    0.747     0  06:00        13.8        13.8       0.007
  jd7                  JUNCTION     0.377    2.943     0  06:00        6.95        74.9       0.040
  jd8                  JUNCTION     0.524    1.470     0  06:00        9.67        46.4       0.273
  jd9                  JUNCTION     0.402    1.470     0  06:00        7.42        45.9       0.040
  jd10                 JUNCTION     1.073    1.354     0  06:00        19.8          25       0.405
  jd11                 JUNCTION     1.584    1.584     0  06:00        29.2        29.2      -0.009
  jd12                 JUNCTION     1.194    2.646     0  06:00          22        48.1       0.288
  jd13                 JUNCTION     2.163    2.163     0  06:00        39.8        39.8       0.009
  jd14                 JUNCTION     2.539    2.876     0  06:00        46.7        52.7       0.029
  jd15                 JUNCTION     1.043    2.008     0  06:00        19.2        42.4       0.084
  jd16                 JUNCTION     1.122    4.340     0  06:00        20.7          82       0.031
  jd17                 JUNCTION     2.347    4.625     0  06:00        43.2        97.9       0.491
  jd18                 JUNCTION     1.860    2.724     0  06:00        34.3        49.9       0.043
  jd19                 JUNCTION     1.727    3.061     0  06:00        31.8        59.6       0.021
  jd20                 JUNCTION     1.436    1.687     0  06:00        26.4          37       0.063
  jd21                 JUNCTION     0.666    3.536     0  06:00        12.3        83.3       0.404
  jd22                 JUNCTION     1.173    2.170     0  06:00        21.6        44.8       0.187
  jd23                 JUNCTION     1.159    3.457     0  06:00        21.3          62      -0.025
  jd24                 JUNCTION     1.904    1.904     0  06:00        35.1        35.1      -0.003
  jd25                 JUNCTION     1.498    2.187     0  06:00        27.6        40.1       0.020
  jd26                 JUNCTION     2.180    3.386     0  06:00        40.1        64.9       0.017
  jd27                 JUNCTION     2.246    2.871     0  06:00        41.3        62.3       0.031
  jd28                 JUNCTION     3.068    3.969     0  06:00        56.4        75.6       0.177
  jd29                 JUNCTION     1.227    1.227     0  06:00        22.6        22.6      -0.011
  jd30                 JUNCTION     1.279    3.241     0  06:00        23.5          68       0.018
  jd31                 JUNCTION     0.854    1.694     0  06:00        15.7        33.4       1.348
  jd32                 JUNCTION     1.731    5.064     0  06:00        31.9         117       0.212
  jd33                 JUNCTION     1.705    2.762     0  06:00        31.4          53       0.016
  jd34                 JUNCTION     2.108    2.108     0  06:00        38.9        38.9      -0.003
  jd35                 JUNCTION     1.924    4.105     0  06:00        35.4        99.2       0.134
  jd36                 JUNCTION     3.275    4.332     0  06:00        60.3        89.6       0.003
  jd37                 JUNCTION     3.441    3.441     0  06:00        63.4        63.4       0.051
  jd38                 JUNCTION     3.159    3.990     0  06:00        58.2        86.4       0.024
  jd39                 JUNCTION     2.187    5.573     0  06:00        40.3         132       0.388
  jd40                 JUNCTION     3.731    5.921     0  06:00        68.7         140       0.023
  jd41                 JUNCTION     2.619    8.173     0  06:00        48.2         171       1.253
  jd42                 JUNCTION     3.445    3.775     0  06:00        63.4        69.5       0.047
  jd43                 JUNCTION     3.851    6.165     0  06:00        71.1         122       0.063
  jd44                 JUNCTION     5.161    8.038     0  06:00        95.1         183      -0.032
  jd45                 JUNCTION     2.103    4.328     0  06:00        38.7         115       0.281
  jd46                 JUNCTION     0.958    0.958     0  06:00        17.6        17.6       0.057
  jd47                 JUNCTION     3.079    3.079     0  06:00        56.7        56.7      -0.010
  jd48                 JUNCTION     0.851    0.851     0  06:00        15.7        15.7      -0.019
  jd49                 JUNCTION     4.193    4.193     0  06:00        77.2        77.2       0.030
  jd50                 JUNCTION     4.343    8.273     0  06:00          80         185       0.235
  jd51                 JUNCTION     0.906    4.145     0  06:00        16.7        76.9       1.817
  jd52                 JUNCTION     1.852    5.201     0  07:16        34.1        89.7       0.058
  jd53                 JUNCTION     1.031    3.911     0  06:00          19        83.4      -0.017
  jd54                 JUNCTION     0.553    2.746     0  06:00        10.2        50.7       0.033
  jd55                 JUNCTION     1.007    4.332     0  06:00        18.5        68.9       1.066
  jd56                 JUNCTION     0.612    1.790     0  06:00        11.3          33       0.016
  jd59                 JUNCTION     0.607    3.004     0  06:00        11.2        55.1       1.423
  jd60                 JUNCTION     1.088    2.307     0  06:00          20        42.6       0.305
  jd61                 JUNCTION     1.221    1.373     0  06:00        22.5        25.3       0.016
  jd62                 JUNCTION     0.491    0.491     0  06:00        9.08        9.08      -0.010
  jd63                 JUNCTION     0.674    0.674     0  06:00        12.4        12.4       0.003
  jd64                 JUNCTION     0.568    1.402     0  06:00        10.5        25.8       1.473
  jd65                 JUNCTION     9.761    9.761     0  06:00         180         180       0.024
  jd66                 JUNCTION     1.275    3.696     0  06:00        23.6        68.3       0.468
  jd69                 JUNCTION     2.356    2.421     0  06:00        43.6        44.8       0.014
  jd79                 JUNCTION     2.294    3.210     0  06:00        42.2        69.5       0.255
  jd80                 JUNCTION     2.549    3.157     0  06:00        46.9        61.6       0.125
  jd81                 JUNCTION     1.938    1.938     0  06:00        35.7        35.7       0.004
  jd83                 JUNCTION     2.016    2.595     0  06:00        37.2        48.4       0.181
  jd84                 JUNCTION     2.562    2.562     0  06:00        47.3        47.3       0.009
  jd85                 JUNCTION     0.582    0.952     0  06:00        10.7        17.6       0.484
  jd87                 JUNCTION     0.477    1.151     0  06:00        8.79        21.2       0.351
  jd89                 JUNCTION     0.556    0.556     0  06:00        10.2        10.2       0.018
  jd90                 JUNCTION     0.567    0.567     0  06:00        10.4        10.4       0.000
  jd92                 JUNCTION     0.477    0.477     0  06:00        8.78        8.78       0.005
  jd93                 JUNCTION     1.029    1.993     0  06:00        18.9          40       0.022
  jd94                 JUNCTION     0.065    0.975     0  07:17         1.2          21      -0.070
  jd95                 JUNCTION     0.124    0.916     0  07:18        2.28        19.8       0.097
  jd96                 JUNCTION     0.929    1.240     0  06:00        17.2        22.9       0.424
  jd97                 JUNCTION     1.004    1.004     0  06:00        18.5        18.5       0.014
  jd98                 JUNCTION     0.560    0.560     0  06:00        10.3        10.3       0.007
  jd99                 JUNCTION     0.269    0.577     0  06:00        4.98        13.2       0.432
  jd101                JUNCTION     0.734    1.431     0  06:00        13.5        26.9      -0.006
  jd102                JUNCTION     0.732    0.732     0  06:00        13.5        13.5       0.014
  jd103                JUNCTION     0.504    0.504     0  06:00        9.28        9.28       0.002
  jd106                JUNCTION     0.394    2.250     0  06:00        7.26        42.5       0.912
  jd107                JUNCTION     0.569    1.870     0  06:00        10.5        34.5       0.025
  jd108                JUNCTION     0.618    0.618     0  06:00        11.4        11.4       0.569
  jd109                JUNCTION     1.034    1.034     0  06:00          19          19       0.003
  jd110                JUNCTION     0.785    1.169     0  06:00        14.6        21.7       0.710
  jd111                JUNCTION     0.652    0.652     0  06:00        12.1        12.1      -0.012
  jd112                JUNCTION     0.767    2.130     0  06:00        14.1        39.4       0.006
  jd113                JUNCTION     0.515    0.515     0  06:00        9.55        9.55      -0.019
  jd114                JUNCTION     0.622    4.338     0  06:00        11.5         117       0.267
  jd117                JUNCTION     0.573    1.871     0  06:00        10.6        34.7       0.448
  jd118                JUNCTION     0.525    0.525     0  06:00        9.67        9.67      -0.002
  jd120                JUNCTION     0.655    0.655     0  06:00        12.1        12.1       0.005
  jd121                JUNCTION     0.810    0.810     0  06:00        14.9        14.9       0.012
  jd122                JUNCTION     1.923    6.264     0  06:00        35.4         135       0.416
  jd123                JUNCTION     1.977    4.455     0  06:00        36.4         115       0.608
  jd124                JUNCTION     2.856    3.929     0  06:00        52.6        95.8       0.061
  jd125                JUNCTION     2.780    4.455     0  06:00        51.2         115       0.011
  jd126                JUNCTION     4.041    4.904     0  06:00        74.4        98.5       0.105
  jd135                JUNCTION     1.023    1.023     0  06:00        18.8        18.8       0.004
  jd136                JUNCTION     0.848    1.363     0  06:00        15.7        25.2       0.021
  psk1                 OUTFALL      0.000    1.034     0  06:00           0        18.9       0.000
  psk2                 OUTFALL      0.000    2.477     0  06:00           0          51       0.000
  psk3                 OUTFALL      0.000    4.340     0  06:00           0          82       0.000
  psk4                 OUTFALL      0.000    0.000     0  00:00           0           0       0.000 ltr
  psk5                 OUTFALL      0.000    0.865     0  06:00           0        18.1       0.000
  psk6                 OUTFALL      0.000    0.785     0  06:00           0        15.3       0.000
  psk7                 OUTFALL      0.000    2.943     0  06:00           0        74.9       0.000
  psk8                 OUTFALL      0.000    0.000     0  00:00           0           0       0.000 ltr
  
  
  **********************
  Node Surcharge Summary
  **********************
  
  Surcharging occurs when water rises above the top of the highest conduit.
  ---------------------------------------------------------------------
                                               Max. Height   Min. Depth
                                   Hours       Above Crown    Below Rim
  Node                 Type      Surcharged         Meters       Meters
  ---------------------------------------------------------------------
  jd2                  JUNCTION        4.81          2.200        0.000
  jd3                  JUNCTION       13.55          2.200        0.000
  jd4                  JUNCTION        9.80          2.200        0.000
  jd8                  JUNCTION       11.72          2.200        0.000
  jd9                  JUNCTION       10.41          2.200        0.000
  jd10                 JUNCTION       13.66          2.400        0.000
  jd12                 JUNCTION       13.75          2.400        0.000
  jd14                 JUNCTION        4.27          2.400        0.000
  jd17                 JUNCTION       12.07          2.200        0.000
  jd18                 JUNCTION        4.19          2.000        0.000
  jd19                 JUNCTION        8.98          2.200        0.000
  jd21                 JUNCTION       13.59          2.200        0.000
  jd22                 JUNCTION       13.39          2.400        0.000
  jd23                 JUNCTION        1.99          2.000        0.000
  jd25                 JUNCTION        1.40          2.000        0.000
  jd26                 JUNCTION        4.45          2.400        0.000
  jd27                 JUNCTION        1.55          2.400        0.000
  jd28                 JUNCTION       13.90          2.400        0.000
  jd31                 JUNCTION       13.29          2.200        0.000
  jd32                 JUNCTION       13.81          2.200        0.000
  jd34                 JUNCTION        2.37          2.400        0.000
  jd35                 JUNCTION       14.14          2.400        0.000
  jd36                 JUNCTION        5.58          2.400        0.000
  jd37                 JUNCTION        5.17          2.400        0.000
  jd38                 JUNCTION        2.32          2.000        0.000
  jd39                 JUNCTION       13.56          2.000        0.000
  jd40                 JUNCTION        7.91          2.200        0.000
  jd41                 JUNCTION       13.10          1.000        0.000
  jd43                 JUNCTION        6.80          2.200        0.000
  jd44                 JUNCTION        7.29          2.000        0.000
  jd45                 JUNCTION       13.69          2.000        0.000
  jd46                 JUNCTION        2.16          2.200        0.000
  jd49                 JUNCTION        0.94          2.200        0.000
  jd50                 JUNCTION       13.96          2.200        0.000
  jd51                 JUNCTION       13.03          1.350        0.000
  jd52                 JUNCTION        4.82          1.500        0.000
  jd53                 JUNCTION        5.27          1.800        0.000
  jd55                 JUNCTION        8.18          1.500        0.000
  jd59                 JUNCTION       12.94          1.500        0.000
  jd60                 JUNCTION       13.77          2.400        0.000
  jd64                 JUNCTION       12.96          1.800        0.000
  jd65                 JUNCTION       10.62          2.400        0.000
  jd66                 JUNCTION       13.62          2.200        0.000
  jd79                 JUNCTION       13.84          2.400        0.000
  jd80                 JUNCTION       12.66          2.400        0.000
  jd83                 JUNCTION       14.17          2.400        0.000
  jd84                 JUNCTION        3.36          2.400        0.000
  jd85                 JUNCTION       13.66          2.400        0.000
  jd87                 JUNCTION       13.70          2.400        0.000
  jd93                 JUNCTION        5.52          2.200        0.000
  jd94                 JUNCTION        4.31          2.200        0.000
  jd95                 JUNCTION        3.92          2.200        0.000
  jd96                 JUNCTION       13.77          2.200        0.000
  jd97                 JUNCTION        3.88          2.200        0.000
  jd99                 JUNCTION       13.60          2.400        0.000
  jd102                JUNCTION        1.79          2.400        0.000
  jd106                JUNCTION       13.29          2.000        0.000
  jd108                JUNCTION       13.73          0.628        1.372
  jd110                JUNCTION       13.64          2.000        0.000
  jd114                JUNCTION       13.71          2.000        0.000
  jd117                JUNCTION       13.56          2.200        0.000
  jd122                JUNCTION       13.58          2.200        0.000
  jd123                JUNCTION       13.53          2.200        0.000
  jd124                JUNCTION       14.37          2.400        0.000
  jd125                JUNCTION        9.54          2.200        0.000
  jd126                JUNCTION       14.16          2.400        0.000
  
  
  *********************
  Node Flooding Summary
  *********************
  
  Flooding refers to all water that overflows a node, whether it ponds or not.
  --------------------------------------------------------------------------
                                                             Total   Maximum
                                 Maximum   Time of Max       Flood    Ponded
                        Hours       Rate    Occurrence      Volume     Depth
  Node                 Flooded       CMS   days hr:min    10^6 ltr    Meters
  --------------------------------------------------------------------------
  jd2                     3.82     0.797      0  06:00       4.946     0.000
  jd3                    13.54     3.562      0  06:00      87.132     0.000
  jd4                     8.53     1.949      0  06:00      25.031     0.000
  jd8                     7.45     0.360      0  06:00       4.966     0.000
  jd9                     7.30     0.524      0  06:00       9.160     0.000
  jd10                   13.65     1.354      0  06:00      24.949     0.000
  jd12                   13.75     2.646      0  06:00      47.983     0.000
  jd14                    2.84     1.049      0  06:00       5.491     0.000
  jd17                   10.40     3.796      0  06:00      61.241     0.000
  jd18                    3.86     1.201      0  06:00       7.981     0.000
  jd19                    5.95     1.993      0  06:00      21.149     0.000
  jd21                   13.29     3.536      0  06:00      82.634     0.000
  jd22                    6.45     1.346      0  06:00      15.755     0.000
  jd23                    1.25     0.556      0  05:12       1.253     0.000
  jd25                    0.01     0.597      0  05:16       0.012     0.000
  jd26                    4.23     1.490      0  06:00      10.683     0.000
  jd27                    0.01     0.305      0  05:14       0.005     0.000
  jd28                   13.90     3.969      0  06:00      75.476     0.000
  jd31                    0.01     0.632      0  03:42       0.007     0.000
  jd32                   13.81     5.064      0  06:00     117.097     0.000
  jd34                    1.58     0.303      0  06:00       1.076     0.000
  jd35                   14.13     4.105      0  06:00      99.091     0.000
  jd36                    4.94     2.274      0  06:00      21.033     0.000
  jd37                    4.83     2.071      0  06:00      17.629     0.000
  jd38                    0.01     0.502      0  05:10       0.010     0.000
  jd39                   13.55     5.573      0  06:00     131.333     0.000
  jd40                    7.07     3.360      0  06:00      45.592     0.000
  jd41                   13.10     8.173      0  06:00     168.903     0.000
  jd43                    6.59     4.333      0  06:00      54.412     0.000
  jd44                    5.58     4.137      0  06:00      43.077     0.000
  jd45                   13.68     4.328      0  06:00     114.581     0.000
  jd46                    1.04     0.213      0  05:16       0.267     0.000
  jd49                    0.68     0.400      0  05:20       0.605     0.000
  jd50                   13.95     8.273      0  06:00     184.301     0.000
  jd51                   13.02     4.145      0  06:00      75.503     0.000
  jd52                    0.03     2.777      0  07:16       0.134     0.000
  jd53                    4.11     1.609      0  06:00       9.893     0.000
  jd55                    4.69     4.332      0  06:00      46.309     0.000
  jd59                   12.94     3.004      0  06:00      54.332     0.000
  jd60                   13.76     2.307      0  06:00      42.451     0.000
  jd64                    0.01     0.370      0  04:03       0.011     0.000
  jd65                   10.53     8.668      0  06:00     131.153     0.000
  jd66                   13.61     3.696      0  06:00      68.009     0.000
  jd79                   11.80     2.959      0  06:00      58.774     0.000
  jd80                   10.93     2.999      0  06:00      53.539     0.000
  jd83                   14.17     2.595      0  06:00      48.348     0.000
  jd84                    1.96     0.722      0  06:00       3.661     0.000
  jd85                   13.65     0.952      0  06:00      17.511     0.000
  jd87                   13.70     1.151      0  06:00      21.157     0.000
  jd93                    3.85     0.810      0  06:00       6.227     0.000
  jd94                    0.01     0.589      0  07:18       0.011     0.000
  jd95                    0.01     0.100      0  13:31       0.002     0.000
  jd96                   13.77     1.240      0  06:00      22.834     0.000
  jd97                    1.73     0.229      0  06:00       0.967     0.000
  jd99                   13.60     0.577      0  06:00      13.148     0.000
  jd102                   0.72     0.075      0  05:09       0.072     0.000
  jd106                  13.29     2.250      0  06:00      42.132     0.000
  jd110                  13.64     1.169      0  06:00      21.531     0.000
  jd114                  13.57     4.338      0  06:00     117.080     0.000
  jd117                   1.88     0.456      0  06:00       2.101     0.000
  jd122                  13.53     6.264      0  06:00     133.910     0.000
  jd123                  13.17     4.140      0  06:00      98.854     0.000
  jd124                  14.37     3.929      0  06:00      95.707     0.000
  jd125                   6.81     2.069      0  06:00      23.819     0.000
  jd126                  14.16     4.903      0  06:00      98.351     0.000
  
  
  ***********************
  Outfall Loading Summary
  ***********************
  
  -----------------------------------------------------------
                         Flow       Avg       Max       Total
                         Freq      Flow      Flow      Volume
  Outfall Node           Pcnt       CMS       CMS    10^6 ltr
  -----------------------------------------------------------
  psk1                  98.46     0.447     1.034      18.904
  psk2                  98.23     1.206     2.477      51.036
  psk3                  98.59     1.934     4.340      81.965
  psk4                   0.00     0.000     0.000       0.000
  psk5                  98.42     0.422     0.865      18.077
  psk6                  98.27     0.359     0.785      15.287
  psk7                  98.57     1.679     2.943      74.878
  psk8                   0.00     0.000     0.000       0.000
  -----------------------------------------------------------
  System                73.82     6.047     0.000     260.147
  
  
  ********************
  Link Flow Summary
  ********************
  
  -----------------------------------------------------------------------------
                                 Maximum  Time of Max   Maximum    Max/    Max/
                                  |Flow|   Occurrence   |Veloc|    Full    Full
  Link                 Type          CMS  days hr:min     m/sec    Flow   Depth
  -----------------------------------------------------------------------------
  GQ1                  CONDUIT     0.355     0  05:05      1.98    0.93    0.71
  GQ2                  CONDUIT     1.666     0  06:00      2.80    0.79    0.72
  GQ3                  CONDUIT     1.034     0  06:00      7.22    0.04    0.14
  GQ4                  CONDUIT     0.510     0  04:41      1.80    1.00    1.00
  GQ5                  CONDUIT     1.208     0  05:22      2.40    1.00    1.00
  GQ6                  CONDUIT     0.467     0  06:00      1.34    0.21    0.66
  GQ7                  CONDUIT     1.675     0  04:39      3.55    1.00    1.00
  GQ8                  CONDUIT     1.045     0  05:38      2.08    1.00    1.00
  GQ9                  CONDUIT     2.837     0  05:28      5.74    1.00    1.00
  GQ10                 CONDUIT     1.136     0  03:54      4.10    1.04    1.00
  GQ11                 CONDUIT     0.330     0  06:00      2.00    0.35    0.61
  GQ12                 CONDUIT     0.406     0  06:00      1.83    0.44    0.73
  GQ13                 CONDUIT     0.239     0  06:00      0.74    0.11    0.61
  GQ14                 CONDUIT     0.130     0  06:00      1.23    0.18    0.26
  GQ15                 CONDUIT     0.247     0  06:00      4.42    0.99    0.77
  GQ16                 CONDUIT     1.963     0  06:00      4.11    0.95    0.64
  GQ17                 CONDUIT     0.618     0  06:00      2.25    0.20    0.54
  GQ18                 CONDUIT     1.110     0  06:00      2.50    5.00    0.89
  GQ19                 CONDUIT     0.838     0  06:00      2.72    0.10    0.42
  GQ20                 CONDUIT     0.184     0  06:00      0.52    0.10    0.61
  GQ21                 CONDUIT     0.680     0  06:00      1.60    0.21    0.66
  GQ22                 CONDUIT     0.689     0  06:00      1.86    0.21    0.66
  GQ23                 CONDUIT     1.560     0  06:00      2.33    0.76    1.00
  GQ24                 CONDUIT     2.020     0  07:42      4.02    1.00    1.00
  GQ25                 CONDUIT     1.057     0  06:00      4.10    1.18    0.88
  GQ26                 CONDUIT     0.751     0  05:16      2.89    0.88    0.88
  GQ27                 CONDUIT     0.997     0  05:35      3.52    1.00    1.00
  GQ28                 CONDUIT     0.353     0  06:00      0.84    0.38    0.78
  GQ29                 CONDUIT     1.694     0  06:00      3.37    0.79    1.00
  GQ30                 CONDUIT     0.824     0  04:35      2.91    1.00    1.00
  GQ31                 CONDUIT     0.747     0  05:19      2.64    1.00    1.00
  GQ32                 CONDUIT     0.739     0  07:31      2.97    1.19    1.00
  GQ33                 CONDUIT     1.434     0  07:32      5.07    1.00    1.00
  GQ34                 CONDUIT     0.517     0  06:00      1.92    0.81    0.91
  GQ35                 CONDUIT     0.710     0  07:11      2.52    1.32    1.00
  GQ36                 CONDUIT     0.974     0  07:11      3.45    1.21    1.00
  GQ37                 CONDUIT     0.695     0  06:00      2.46    0.99    1.00
  GQ38                 CONDUIT     0.207     0  06:00      0.94    0.29    0.73
  GQ39                 CONDUIT     0.782     0  07:54      2.76    1.00    1.00
  GQ40                 CONDUIT     0.801     0  06:00      2.83    1.00    1.00
  GQ41                 CONDUIT     2.027     0  06:00      2.58    0.94    1.00
  GQ42                 CONDUIT     1.359     0  04:57      2.70    1.00    1.00
  GQ43                 CONDUIT     2.310     0  04:19      4.70    1.03    1.00
  GQ44                 CONDUIT     0.946     0  05:15      1.88    1.00    1.00
  GQ45                 CONDUIT     1.334     0  06:00      3.19    0.54    0.78
  GQ46                 CONDUIT     1.068     0  13:49      2.12    1.00    1.00
  GQ47                 CONDUIT     0.282     0  06:00      1.38    0.27    0.68
  GQ48                 CONDUIT     0.280     0  06:00      1.38    0.27    0.68
  GQ49                 CONDUIT     1.173     0  06:00      5.28    0.44    0.73
  GQ50                 CONDUIT     0.337     0  06:00      1.52    0.44    0.73
  GQ51                 CONDUIT     0.995     0  05:07      3.61    1.52    1.00
  GQ52                 CONDUIT     0.852     0  06:01      1.70    1.14    1.00
  GQ53                 CONDUIT     2.225     0  08:26      2.83    1.00    1.00
  GQ54                 CONDUIT     0.698     0  06:00      2.96    0.60    0.78
  GQ55                 CONDUIT     0.521     0  06:00      2.45    0.35    0.71
  GQ56                 CONDUIT     2.003     0  04:11      4.14    1.09    1.00
  GQ57                 CONDUIT     1.052     0  06:00      2.42    0.69    0.81
  GQ58                 CONDUIT     2.204     0  06:00      5.08    0.69    0.81
  GQ59                 CONDUIT     1.203     0  05:26      2.39    1.00    1.00
  GQ60                 CONDUIT     2.718     0  07:16      1.66    0.66    1.00
  GQ61                 CONDUIT     0.438     0  06:00      0.41    0.05    0.58
  GQ62                 CONDUIT     0.932     0  06:00      0.69    0.09    0.60
  GQ63                 CONDUIT     2.147     0  06:00      1.12    0.06    0.59
  GQ64                 CONDUIT     0.152     0  06:00      1.54    0.12    0.39
  GQ65                 CONDUIT     0.065     0  06:00      0.39    0.12    0.59
  GQ66                 CONDUIT     0.267     0  06:00      0.86    0.08    0.60
  GQ67                 CONDUIT     1.402     0  06:00      1.24    0.97    1.00
  GQ68                 CONDUIT     1.482     0  06:00      2.37    0.47    0.74
  GQ69                 CONDUIT     2.421     0  06:00      5.27    0.86    0.86
  GQ70                 CONDUIT     0.785     0  06:00      9.16    0.11    0.23
  GQ71                 CONDUIT     0.865     0  06:00      6.46    0.21    0.31
  GQ72                 CONDUIT     2.943     0  06:00      5.77    0.70    0.62
  GQ73                 CONDUIT     2.477     0  06:00     14.36    0.16    0.27
  GQ74                 CONDUIT     0.547     0  06:00      1.58    0.10    0.49
  GQ75                 CONDUIT     0.557     0  06:00      1.06    0.16    0.64
  GQ76                 CONDUIT     4.340     0  06:00      6.69    0.94    0.77
  GQ77                 CONDUIT     0.000     0  00:00      0.00    0.00    0.34
  GQ78                 CONDUIT     0.916     0  08:33      3.24    1.00    1.00
  GQ79                 CONDUIT     0.252     0  05:16      1.08    0.54    0.87
  GQ80                 CONDUIT     0.608     0  04:47      2.15    1.00    1.00
  GQ81                 CONDUIT     0.432     0  03:42      1.53    2.74    1.00
  GQ82                 CONDUIT     0.932     0  06:00      3.88    0.64    0.79
  GQ83                 CONDUIT     1.006     0  06:00      4.19    0.64    0.79
  GQ84                 CONDUIT     1.305     0  13:29      4.71    1.03    1.00
  GQ85                 CONDUIT     0.579     0  05:37      2.05    1.00    1.00
  GQ86                 CONDUIT     0.274     0  06:00      1.50    0.12    0.62
  GQ87                 CONDUIT     0.097     0  06:00      0.52    0.14    0.63
  GQ88                 CONDUIT     0.674     0  06:00      2.85    0.60    0.78
  GQ89                 CONDUIT     0.556     0  06:00      2.16    0.73    0.85
  GQ90                 CONDUIT     0.567     0  06:00      2.43    0.57    0.77
  GQ91                 CONDUIT     0.477     0  06:00      1.87    0.58    0.85
  GQ92                 CONDUIT     0.918     0  07:17      2.00    1.32    1.00
  GQ93                 CONDUIT     0.964     0  06:00      1.92    0.83    1.00
  GQ94                 CONDUIT     1.228     0  07:15      2.44    1.46    1.00
  GQ95                 CONDUIT     0.311     0  06:00      1.00    0.08    0.60
  GQ96                 CONDUIT     0.812     0  07:18      1.62    1.39    1.00
  GQ97                 CONDUIT     0.560     0  06:00      2.28    1.01    0.82
  GQ98                 CONDUIT     0.308     0  06:00      1.15    0.44    0.90
  GQ99                 CONDUIT     0.993     0  06:00      0.94    0.05    0.58
  GQ100                CONDUIT     0.697     0  06:00      3.31    1.20    0.70
  GQ101                CONDUIT     0.504     0  06:00      2.34    0.38    0.71
  GQ102                CONDUIT     2.024     0  06:00      4.79    0.61    0.78
  GQ103                CONDUIT     0.628     0  06:00      2.22    0.96    1.00
  GQ104                CONDUIT     1.390     0  07:30      5.02    1.01    1.00
  GQ105                CONDUIT     0.400     0  03:28      0.80    1.27    1.00
  GQ106                CONDUIT     0.534     0  06:00      2.32    0.53    0.76
  GQ107                CONDUIT     1.114     0  04:37      3.94    1.00    1.00
  GQ108                CONDUIT     0.829     0  13:55      1.65    1.00    1.00
  GQ109                CONDUIT     0.404     0  06:00      1.65    0.55    0.81
  GQ110                CONDUIT     0.680     0  06:00      1.37    0.10    0.61
  GQ111                CONDUIT     0.618     0  06:00      2.52    0.56    0.81
  GQ112                CONDUIT     1.870     0  06:00      3.41    0.33    0.51
  GQ113                CONDUIT     1.034     0  06:00      4.67    0.78    0.73
  GQ114                CONDUIT     0.618     0  06:00      0.99    0.25    0.74
  GQ115                CONDUIT     0.268     0  06:00      1.13    0.04    0.26
  GQ116                CONDUIT     0.384     0  06:00      0.82    0.05    0.58
  GQ117                CONDUIT     1.363     0  06:00      4.87    0.85    0.56
  GQ118                CONDUIT     0.515     0  06:00      2.34    0.18    0.57
  GQ119                CONDUIT     2.302     0  05:24      4.58    1.00    1.00
  GQ120                CONDUIT     0.000     0  00:00      0.00    0.00    0.50
  GQ121                CONDUIT     1.414     0  07:39      2.81    1.00    1.00
  GQ122                CONDUIT     0.772     0  06:00      2.33    0.14    0.63
  GQ123                CONDUIT     0.525     0  06:00      2.60    0.25    0.67
  GQ124                CONDUIT     0.323     0  06:00      1.17    0.14    0.60
  GQ125                CONDUIT     0.655     0  06:00      2.44    0.74    0.90
  GQ126                CONDUIT     0.810     0  06:00      3.19    0.77    0.84
  GQ127                CONDUIT     0.864     0  07:13      1.75    1.10    1.00
  GQ128                CONDUIT     2.746     0  06:00      2.78    0.60    0.82
  GQ129                CONDUIT     1.313     0  04:45      2.61    1.00    1.00
  GQ130                CONDUIT     1.073     0  04:45      3.79    1.00    1.00
  GQ131                CONDUIT     0.862     0  05:14      3.05    1.00    1.00
  
  
  ***************************
  Flow Classification Summary
  ***************************
  
  -------------------------------------------------------------------------------------
                      Adjusted    ---------- Fraction of Time in Flow Class ---------- 
                       /Actual         Up    Down  Sub   Sup   Up    Down  Norm  Inlet 
  Conduit               Length    Dry  Dry   Dry   Crit  Crit  Crit  Crit  Ltd   Ctrl  
  -------------------------------------------------------------------------------------
  GQ1                     1.00   0.01  0.00  0.00  0.28  0.71  0.00  0.00  0.00  0.00
  GQ2                     1.00   0.01  0.00  0.00  0.03  0.96  0.00  0.00  0.91  0.00
  GQ3                     1.00   0.02  0.00  0.00  0.00  0.98  0.00  0.00  0.16  0.00
  GQ4                     1.00   0.01  0.00  0.00  0.99  0.00  0.00  0.00  0.27  0.00
  GQ5                     1.00   0.01  0.00  0.00  0.99  0.00  0.00  0.00  0.53  0.00
  GQ6                     1.00   0.01  0.00  0.00  0.99  0.00  0.00  0.00  0.94  0.00
  GQ7                     1.00   0.01  0.00  0.00  0.71  0.28  0.00  0.00  0.09  0.00
  GQ8                     1.00   0.01  0.00  0.00  0.99  0.00  0.00  0.00  0.81  0.00
  GQ9                     1.00   0.01  0.00  0.00  0.46  0.53  0.00  0.00  0.83  0.00
  GQ10                    1.00   0.01  0.00  0.00  0.88  0.10  0.00  0.00  0.30  0.00
  GQ11                    1.00   0.01  0.00  0.00  0.22  0.77  0.00  0.00  0.91  0.00
  GQ12                    1.00   0.01  0.00  0.00  0.99  0.00  0.00  0.00  0.94  0.00
  GQ13                    1.00   0.01  0.00  0.00  0.98  0.00  0.00  0.00  0.94  0.00
  GQ14                    1.00   0.01  0.00  0.00  0.87  0.12  0.00  0.00  0.00  0.00
  GQ15                    1.00   0.01  0.00  0.00  0.00  0.99  0.00  0.00  0.01  0.00
  GQ16                    1.00   0.01  0.00  0.00  0.01  0.98  0.00  0.00  0.00  0.00
  GQ17                    1.00   0.01  0.00  0.00  0.50  0.48  0.00  0.00  0.94  0.00
  GQ18                    1.00   0.01  0.00  0.00  0.82  0.16  0.00  0.00  0.09  0.00
  GQ19                    1.00   0.01  0.00  0.00  0.31  0.68  0.00  0.00  0.94  0.00
  GQ20                    1.00   0.01  0.00  0.00  0.99  0.00  0.00  0.00  0.94  0.00
  GQ21                    1.00   0.01  0.00  0.00  0.82  0.16  0.00  0.00  0.94  0.00
  GQ22                    1.00   0.01  0.00  0.00  0.22  0.76  0.00  0.00  0.94  0.00
  GQ23                    1.00   0.01  0.00  0.00  0.25  0.74  0.00  0.00  0.32  0.00
  GQ24                    1.00   0.01  0.00  0.00  0.78  0.20  0.00  0.00  0.65  0.00
  GQ25                    1.00   0.01  0.00  0.00  0.00  0.99  0.00  0.00  0.00  0.00
  GQ26                    1.00   0.01  0.00  0.00  0.01  0.97  0.00  0.00  0.82  0.00
  GQ27                    1.00   0.01  0.00  0.00  0.75  0.23  0.00  0.00  0.54  0.00
  GQ28                    1.00   0.01  0.00  0.00  0.99  0.00  0.00  0.00  0.64  0.00
  GQ29                    1.00   0.01  0.00  0.00  0.99  0.00  0.00  0.00  0.14  0.00
  GQ30                    1.00   0.01  0.00  0.00  0.98  0.01  0.00  0.00  0.13  0.00
  GQ31                    1.00   0.01  0.00  0.00  0.99  0.00  0.00  0.00  0.64  0.00
  GQ32                    1.00   0.01  0.00  0.00  0.20  0.79  0.00  0.00  0.00  0.00
  GQ33                    1.00   0.01  0.00  0.00  0.65  0.33  0.00  0.00  0.49  0.00
  GQ34                    1.00   0.01  0.00  0.00  0.98  0.01  0.00  0.00  0.75  0.00
  GQ35                    1.00   0.01  0.00  0.00  0.56  0.42  0.00  0.00  0.37  0.00
  GQ36                    1.00   0.01  0.00  0.00  0.48  0.51  0.00  0.00  0.52  0.00
  GQ37                    1.00   0.01  0.00  0.00  0.99  0.00  0.00  0.00  0.60  0.00
  GQ38                    1.00   0.01  0.00  0.00  0.98  0.00  0.00  0.00  0.64  0.00
  GQ39                    1.00   0.01  0.00  0.00  0.97  0.01  0.00  0.00  0.61  0.00
  GQ40                    1.00   0.01  0.00  0.00  0.42  0.57  0.00  0.00  0.69  0.00
  GQ41                    1.00   0.01  0.00  0.00  0.99  0.00  0.00  0.00  0.49  0.00
  GQ42                    1.00   0.01  0.00  0.00  0.99  0.00  0.00  0.00  0.36  0.00
  GQ43                    1.00   0.01  0.00  0.00  0.53  0.46  0.00  0.00  0.58  0.00
  GQ44                    1.00   0.01  0.00  0.00  0.99  0.00  0.00  0.00  0.27  0.00
  GQ45                    1.00   0.01  0.00  0.00  0.50  0.49  0.00  0.00  0.83  0.00
  GQ46                    1.00   0.01  0.00  0.00  0.87  0.12  0.00  0.00  0.23  0.00
  GQ47                    1.00   0.01  0.00  0.00  0.99  0.00  0.00  0.00  0.94  0.00
  GQ48                    1.00   0.01  0.00  0.00  0.99  0.00  0.00  0.00  0.94  0.00
  GQ49                    1.00   0.01  0.00  0.00  0.39  0.60  0.00  0.00  0.94  0.00
  GQ50                    1.00   0.01  0.00  0.00  0.99  0.00  0.00  0.00  0.94  0.00
  GQ51                    1.00   0.01  0.00  0.00  0.31  0.67  0.00  0.00  0.41  0.00
  GQ52                    1.00   0.01  0.00  0.00  0.99  0.00  0.00  0.00  0.64  0.00
  GQ53                    1.00   0.01  0.00  0.00  0.99  0.00  0.00  0.00  0.38  0.00
  GQ54                    1.00   0.01  0.00  0.00  0.66  0.33  0.00  0.00  0.94  0.00
  GQ55                    1.00   0.01  0.00  0.00  0.80  0.18  0.00  0.00  0.94  0.00
  GQ56                    1.00   0.01  0.00  0.00  0.61  0.38  0.00  0.00  0.32  0.00
  GQ57                    1.00   0.01  0.00  0.00  0.99  0.00  0.00  0.00  0.92  0.00
  GQ58                    1.00   0.01  0.00  0.00  0.50  0.49  0.00  0.00  0.94  0.00
  GQ59                    1.00   0.01  0.00  0.00  0.99  0.00  0.00  0.00  0.37  0.00
  GQ60                    1.00   0.01  0.00  0.00  0.99  0.00  0.00  0.00  0.16  0.00
  GQ61                    1.00   0.01  0.00  0.00  0.99  0.00  0.00  0.00  0.94  0.00
  GQ62                    1.00   0.01  0.00  0.00  0.99  0.00  0.00  0.00  0.94  0.00
  GQ63                    1.00   0.01  0.00  0.00  0.98  0.00  0.00  0.00  0.94  0.00
  GQ64                    1.00   0.01  0.00  0.00  0.18  0.80  0.00  0.00  0.94  0.00
  GQ65                    1.00   0.01  0.00  0.00  0.99  0.00  0.00  0.00  0.94  0.00
  GQ66                    1.00   0.01  0.00  0.00  0.99  0.00  0.00  0.00  0.94  0.00
  GQ67                    1.00   0.01  0.00  0.00  0.99  0.00  0.00  0.00  0.13  0.00
  GQ68                    1.00   0.01  0.00  0.00  0.99  0.00  0.00  0.00  0.94  0.00
  GQ69                    1.00   0.01  0.00  0.00  0.46  0.52  0.00  0.00  0.94  0.00
  GQ70                    1.00   0.02  0.00  0.00  0.00  0.98  0.00  0.00  0.01  0.00
  GQ71                    1.00   0.01  0.00  0.00  0.00  0.98  0.00  0.00  0.12  0.00
  GQ72                    1.00   0.01  0.00  0.00  0.00  0.99  0.00  0.00  0.38  0.00
  GQ73                    1.00   0.01  0.00  0.00  0.01  0.98  0.00  0.00  0.02  0.00
  GQ74                    1.00   0.01  0.00  0.00  0.91  0.07  0.00  0.00  0.94  0.00
  GQ75                    1.00   0.01  0.00  0.00  0.98  0.00  0.00  0.00  0.94  0.00
  GQ76                    1.00   0.01  0.00  0.00  0.00  0.99  0.00  0.00  0.34  0.00
  GQ77                    1.00   0.01  0.99  0.00  0.00  0.00  0.00  0.00  0.00  0.00
  GQ78                    1.00   0.01  0.00  0.00  0.85  0.13  0.00  0.00  0.49  0.00
  GQ79                    1.00   0.01  0.00  0.00  0.99  0.00  0.00  0.00  0.13  0.00
  GQ80                    1.00   0.01  0.00  0.00  0.99  0.00  0.00  0.00  0.31  0.00
  GQ81                    1.00   0.01  0.00  0.00  0.99  0.00  0.00  0.00  0.00  0.00
  GQ82                    1.00   0.01  0.00  0.00  0.51  0.48  0.00  0.00  0.94  0.00
  GQ83                    1.00   0.01  0.00  0.00  0.00  0.99  0.00  0.00  0.94  0.00
  GQ84                    1.00   0.01  0.00  0.00  0.43  0.55  0.00  0.00  0.68  0.00
  GQ85                    1.00   0.01  0.00  0.00  0.99  0.00  0.00  0.00  0.35  0.00
  GQ86                    1.00   0.01  0.00  0.00  0.99  0.00  0.00  0.00  0.94  0.00
  GQ87                    1.00   0.01  0.00  0.00  0.99  0.00  0.00  0.00  0.94  0.00
  GQ88                    1.00   0.01  0.00  0.00  0.71  0.28  0.00  0.00  0.94  0.00
  GQ89                    1.00   0.01  0.00  0.00  0.99  0.00  0.00  0.00  0.84  0.00
  GQ90                    1.00   0.01  0.00  0.00  0.82  0.17  0.00  0.00  0.94  0.00
  GQ91                    1.00   0.01  0.00  0.00  0.99  0.00  0.00  0.00  0.82  0.00
  GQ92                    1.00   0.01  0.00  0.00  0.91  0.08  0.00  0.00  0.03  0.00
  GQ93                    1.00   0.01  0.00  0.00  0.99  0.00  0.00  0.00  0.64  0.00
  GQ94                    1.00   0.01  0.00  0.00  0.79  0.19  0.00  0.00  0.07  0.00
  GQ95                    1.00   0.01  0.00  0.00  0.99  0.00  0.00  0.00  0.94  0.00
  GQ96                    1.00   0.01  0.00  0.00  0.99  0.00  0.00  0.00  0.29  0.00
  GQ97                    1.00   0.01  0.00  0.00  0.07  0.92  0.00  0.00  0.48  0.00
  GQ98                    1.00   0.01  0.00  0.00  0.99  0.00  0.00  0.00  0.49  0.00
  GQ99                    1.00   0.01  0.00  0.00  0.99  0.00  0.00  0.00  0.94  0.00
  GQ100                   1.00   0.01  0.00  0.00  0.00  0.98  0.00  0.00  0.00  0.00
  GQ101                   1.00   0.01  0.00  0.00  0.82  0.17  0.00  0.00  0.94  0.00
  GQ102                   1.00   0.01  0.00  0.00  0.50  0.49  0.00  0.00  0.94  0.00
  GQ103                   1.00   0.01  0.00  0.00  0.99  0.00  0.00  0.00  0.64  0.00
  GQ104                   1.00   0.01  0.00  0.00  0.45  0.53  0.00  0.00  0.82  0.00
  GQ105                   1.00   0.01  0.00  0.00  0.99  0.00  0.00  0.00  0.12  0.00
  GQ106                   1.00   0.01  0.00  0.00  0.83  0.15  0.00  0.00  0.94  0.00
  GQ107                   1.00   0.01  0.00  0.00  0.66  0.32  0.00  0.00  0.63  0.00
  GQ108                   1.00   0.01  0.00  0.00  0.99  0.00  0.00  0.00  0.14  0.00
  GQ109                   1.00   0.01  0.00  0.00  0.94  0.05  0.00  0.00  0.82  0.00
  GQ110                   1.00   0.01  0.00  0.00  0.99  0.00  0.00  0.00  0.94  0.00
  GQ111                   1.00   0.01  0.00  0.00  0.82  0.17  0.00  0.00  0.79  0.00
  GQ112                   1.00   0.01  0.00  0.00  0.00  0.98  0.00  0.00  0.93  0.00
  GQ113                   1.00   0.01  0.00  0.00  0.00  0.99  0.00  0.00  0.91  0.00
  GQ114                   1.00   0.01  0.00  0.00  0.99  0.00  0.00  0.00  0.13  0.00
  GQ115                   1.00   0.01  0.00  0.00  0.98  0.01  0.00  0.00  0.94  0.00
  GQ116                   1.00   0.01  0.00  0.00  0.99  0.00  0.00  0.00  0.94  0.00
  GQ117                   1.00   0.01  0.00  0.00  0.00  0.99  0.00  0.00  0.00  0.00
  GQ118                   1.00   0.01  0.00  0.00  0.39  0.60  0.00  0.00  0.94  0.00
  GQ119                   1.00   0.01  0.00  0.00  0.76  0.23  0.00  0.00  0.47  0.00
  GQ120                   1.00   0.01  0.05  0.00  0.94  0.00  0.00  0.00  0.00  0.00
  GQ121                   1.00   0.01  0.00  0.00  0.99  0.00  0.00  0.00  0.13  0.00
  GQ122                   1.00   0.01  0.00  0.00  0.80  0.18  0.00  0.00  0.94  0.00
  GQ123                   1.00   0.01  0.00  0.00  0.68  0.31  0.00  0.00  0.94  0.00
  GQ124                   1.00   0.01  0.00  0.00  0.98  0.00  0.00  0.00  0.94  0.00
  GQ125                   1.00   0.01  0.00  0.00  0.98  0.00  0.00  0.00  0.74  0.00
  GQ126                   1.00   0.01  0.00  0.00  0.59  0.40  0.00  0.00  0.86  0.00
  GQ127                   1.00   0.01  0.00  0.00  0.99  0.00  0.00  0.00  0.34  0.00
  GQ128                   1.00   0.01  0.00  0.00  0.56  0.42  0.00  0.00  0.78  0.00
  GQ129                   1.00   0.01  0.00  0.00  0.99  0.00  0.00  0.00  0.29  0.00
  GQ130                   1.00   0.01  0.00  0.00  0.93  0.06  0.00  0.00  0.29  0.00
  GQ131                   1.00   0.01  0.00  0.00  0.86  0.12  0.00  0.00  0.55  0.00
  
  
  *************************
  Conduit Surcharge Summary
  *************************
  
  ----------------------------------------------------------------------------
                                                           Hours        Hours 
                         --------- Hours Full --------   Above Full   Capacity
  Conduit                Both Ends  Upstream  Dnstream   Normal Flow   Limited
  ----------------------------------------------------------------------------
  GQ1                         0.01      1.77      0.01      0.01         0.01
  GQ4                        10.34     10.34     13.66      0.01         0.01
  GQ5                         4.81      4.81     13.55      0.01         0.01
  GQ6                         0.01      0.01      4.81      0.01         0.01
  GQ7                         8.02      8.02      9.54      0.01         0.01
  GQ8                         0.95      0.95      8.02      0.01         0.01
  GQ9                         0.95      0.95     13.96      0.01         0.01
  GQ10                       10.63     10.63     14.08      0.17         0.01
  GQ12                        0.01      0.01     12.98      0.01         0.01
  GQ13                        0.01      0.01      9.80      0.01         0.01
  GQ16                        0.01      2.32      0.01      0.01         0.01
  GQ18                        0.01      0.01     11.72     12.53         0.01
  GQ20                        0.01      0.01      4.19      0.01         0.01
  GQ21                        0.01      0.01      4.19      0.01         0.01
  GQ22                        0.01      0.01      1.40      0.01         0.01
  GQ23                        1.40      1.40      1.99      0.01         0.01
  GQ24                        2.24      2.24     13.81      0.01         0.01
  GQ25                        0.01      2.37      0.01      1.98         0.01
  GQ26                        0.01      0.01      2.55      0.01         0.01
  GQ27                        2.55      2.55     13.39      0.01         0.01
  GQ28                        0.01      0.01     13.59      0.01         0.01
  GQ29                       13.29     13.29     13.59      0.01         0.01
  GQ30                       13.39     13.39     13.69      0.01         0.01
  GQ31                        2.37      2.37     14.14      0.01         0.01
  GQ32                        1.54      5.58      1.54      5.04         1.54
  GQ33                        5.58      5.58     14.14      0.01         0.01
  GQ34                        0.01      0.01      5.58      0.01         0.01
  GQ35                        5.13      5.17      5.58      0.37         0.01
  GQ36                        5.11      5.17      5.18      5.46         5.08
  GQ37                        1.54      1.54     13.90      0.01         0.01
  GQ38                        0.01      0.01     13.90      0.01         0.01
  GQ39                        4.45      4.45     12.98      0.01         0.01
  GQ40                        1.54      1.54      4.45      0.01         0.01
  GQ41                        2.32      2.32     13.56      0.01         0.01
  GQ42                        7.91      7.91     13.64      0.01         0.01
  GQ43                        5.74      5.74      7.91      0.21         0.01
  GQ44                       10.41     10.41     11.72      0.01         0.01
  GQ45                        0.01      0.01      8.98      0.01         0.01
  GQ46                        8.98      8.98     10.41      0.01         0.01
  GQ47                        0.01      0.01     13.66      0.01         0.01
  GQ48                        0.01      0.01     13.75      0.01         0.01
  GQ49                        0.01      0.01     13.75      0.01         0.01
  GQ50                        0.01      0.01      4.27      0.01         0.01
  GQ51                        1.77      4.27      1.77      4.67         1.77
  GQ52                        2.16      2.16     13.29      1.32         1.32
  GQ53                        7.29      7.29     13.69      0.01         0.01
  GQ54                        0.01      0.01     13.77      0.01         0.01
  GQ55                        0.01      0.01     13.77      0.01         0.01
  GQ56                        6.77      6.80      8.02      1.66         1.00
  GQ57                        0.01      0.01      6.80      0.01         0.01
  GQ58                        0.01      0.01     13.46      0.01         0.01
  GQ59                        7.91      7.91     13.46      0.01         0.01
  GQ60                        4.82      4.82      8.18      0.01         0.01
  GQ61                        0.01      0.01     12.94      0.01         0.01
  GQ62                        0.01      0.01     13.03      0.01         0.01
  GQ63                        0.01      0.01     13.10      0.01         0.01
  GQ66                        0.01      0.01     13.13      0.01         0.01
  GQ67                       12.96     12.96     13.03      0.01         0.01
  GQ68                        0.01      0.01     13.30      0.01         0.01
  GQ69                        0.01      0.01     13.62      0.01         0.01
  GQ75                        0.01      0.01     13.29      0.01         0.01
  GQ78                        5.62      5.62     13.84      0.01         0.01
  GQ79                        0.01      0.01     13.84      0.01         0.01
  GQ80                        5.62      5.62     12.66      0.01         0.01
  GQ81                       12.59     12.66     12.98     11.98         1.40
  GQ82                        0.01      0.01     12.98      0.01         0.01
  GQ83                        0.01      0.01      2.28      0.01         0.01
  GQ84                        3.36      3.36      7.74      0.73         0.01
  GQ85                        3.36      3.36     14.17      0.01         0.01
  GQ86                        0.01      0.01     13.66      0.01         0.01
  GQ87                        0.01      0.01     13.66      0.01         0.01
  GQ88                        0.01      0.01     13.70      0.01         0.01
  GQ89                        0.01      0.01     13.38      0.01         0.01
  GQ90                        0.01      0.01     13.23      0.01         0.01
  GQ91                        0.01      0.01     13.48      0.01         0.01
  GQ92                        3.90      3.92      4.31      3.33         3.23
  GQ93                        4.31      4.31      5.52      0.01         0.01
  GQ94                        5.52      5.52      5.74      5.43         5.22
  GQ95                        0.01      0.01     13.77      0.01         0.01
  GQ96                        3.85      3.88      3.92      4.03         3.65
  GQ97                        0.01      0.01      0.01      0.58         0.01
  GQ98                        0.01      0.01     13.60      0.01         0.01
  GQ99                        0.01      0.01     13.07      0.01         0.01
  GQ100                       0.01      1.79      0.01      1.59         0.01
  GQ101                       0.01      0.01     13.49      0.01         0.01
  GQ102                       0.01      0.01     13.58      0.01         0.01
  GQ103                       1.89      1.89     13.74      0.01         0.01
  GQ104                       1.54      1.54     13.74      0.13         0.01
  GQ105                      13.53     13.53     13.58     12.78         0.01
  GQ106                       0.01      0.01     13.58      0.01         0.01
  GQ107                       4.45      4.45     13.58      0.01         0.01
  GQ108                      12.07     12.07     13.53      0.01         0.01
  GQ109                       0.01      0.01      4.45      0.01         0.01
  GQ110                       0.01      0.01     13.29      0.01         0.01
  GQ111                       0.01      0.01     13.49      0.01         0.01
  GQ114                       0.01      0.01     13.73      0.01         0.01
  GQ116                       0.01      0.01     13.64      0.01         0.01
  GQ119                       6.17      6.17     13.80      0.01         0.01
  GQ120                       0.01      0.01     13.71      0.01         0.01
  GQ121                      13.56     13.56     13.80      0.01         0.01
  GQ122                       0.01      0.01     13.56      0.01         0.01
  GQ123                       0.01      0.01     13.59      0.01         0.01
  GQ125                       0.01      0.01     13.48      0.01         0.01
  GQ126                       0.01      0.01     13.49      0.01         0.01
  GQ127                       5.74      5.74      6.17      0.34         0.18
  GQ128                       0.01      0.01      5.27      0.01         0.01
  GQ129                       9.54      9.54     13.81      0.01         0.01
  GQ130                      10.01     10.01     14.37      0.01         0.01
  GQ131                       4.27      4.27     14.16      0.01         0.01
  

  Analysis begun on:  Sat Mar 25 16:22:45 2023
  Analysis ended on:  Sat Mar 25 16:22:50 2023
  Total elapsed time: 00:00:05