
  OWA STORM WATER MANAGEMENT MODEL - VERSION v5.1.14 (OWA 2022-07-31)
  --------------------------------------------------------------

  INP file created by DSDAConvertToSwmmTools 
  version 0.0.1 EcoVista 
  Title/Notes: 
  
  
  *********************************************************
  NOTE: The summary statistics displayed in this report are
  based on results found at every computational time step,  
  not just on results from each reporting time step.
  *********************************************************
  
  ****************
  Analysis Options
  ****************
  Flow Units ............... CMS
  Process Models:
    Rainfall/Runoff ........ YES
    RDII ................... NO
    Snowmelt ............... NO
    Groundwater ............ NO
    Flow Routing ........... YES
    Ponding Allowed ........ NO
    Water Quality .......... NO
  Infiltration Method ...... GREEN_AMPT
  Flow Routing Method ...... DYNWAVE
  Surcharge Method ......... EXTRAN
  Starting Date ............ 07/15/2020 00:00:00
  Ending Date .............. 07/15/2020 08:00:00
  Antecedent Dry Days ...... 0.0
  Report Time Step ......... 00:30:00
  Wet Time Step ............ 00:05:00
  Dry Time Step ............ 01:00:00
  Routing Time Step ........ 30.00 sec
  Variable Time Step ....... YES
  Maximum Trials ........... 8
  Number of Threads ........ 1
  Head Tolerance ........... 0.001500 m
  
  
  **************************        Volume         Depth
  Runoff Quantity Continuity     hectare-m            mm
  **************************     ---------       -------
  Total Precipitation ......       166.255        41.600
  Evaporation Loss .........         2.616         0.655
  Infiltration Loss ........        44.431        11.117
  Surface Runoff ...........       109.886        27.495
  Final Storage ............         9.698         2.427
  Continuity Error (%) .....        -0.226
  
  
  **************************        Volume        Volume
  Flow Routing Continuity        hectare-m      10^6 ltr
  **************************     ---------     ---------
  Dry Weather Inflow .......         0.000         0.000
  Wet Weather Inflow .......       109.569      1095.705
  Groundwater Inflow .......         0.000         0.000
  RDII Inflow ..............         0.000         0.000
  External Inflow ..........         0.000         0.000
  External Outflow .........         9.106        91.064
  Flooding Loss ............        98.601       986.025
  Evaporation Loss .........         0.000         0.000
  Exfiltration Loss ........         0.000         0.000
  Initial Stored Volume ....         0.000         0.000
  Final Stored Volume ......         1.670        16.697
  Continuity Error (%) .....         0.175
  
  
  *************************
  Highest Continuity Errors
  *************************
  Node jd51 (4.97%)
  Node jd64 (4.01%)
  Node jd59 (3.98%)
  Node jd31 (3.75%)
  Node jd41 (3.63%)
  
  
  ***************************
  Time-Step Critical Elements
  ***************************
  Link GQ73 (92.84%)
  
  
  ********************************
  Highest Flow Instability Indexes
  ********************************
  Link GQ67 (23)
  Link GQ29 (7)
  Link GQ114 (5)
  Link GQ121 (4)
  Link GQ94 (3)
  
  
  *************************
  Routing Time Step Summary
  *************************
  Minimum Time Step           :     2.94 sec
  Average Time Step           :     8.02 sec
  Maximum Time Step           :    30.00 sec
  Percent in Steady State     :     0.00
  Average Iterations per Step :     4.27
  Percent Not Converging      :    19.16
  
  
  ***************************
  Subcatchment Runoff Summary
  ***************************
  
  ------------------------------------------------------------------------------------------------------------------------------
                            Total      Total      Total      Total     Imperv       Perv      Total       Total     Peak  Runoff
                           Precip      Runon       Evap      Infil     Runoff     Runoff     Runoff      Runoff   Runoff   Coeff
  Subcatchment                 mm         mm         mm         mm         mm         mm         mm    10^6 ltr      CMS
  ------------------------------------------------------------------------------------------------------------------------------
  1                         41.60       0.00       0.39      23.31      16.66       0.00      16.66        6.59     0.78   0.400
  2                         41.60       0.00       0.70       8.85      29.28       0.00      29.28       26.48     3.17   0.704
  3                         41.60       0.00       0.73       7.59      30.77       0.00      30.77       12.31     1.47   0.740
  4                         41.60       0.00       0.75       6.52      31.98       0.00      31.98        2.68     0.32   0.769
  5                         41.60       0.00       0.67      10.60      28.25       0.00      28.25        3.49     0.41   0.679
  6                         41.60       0.00       0.64      11.92      27.13       0.00      27.13        2.52     0.30   0.652
  7                         41.60       0.00       0.66      10.64      27.82       0.00      27.82       12.13     1.45   0.669
  8                         41.60       0.00       0.84       2.33      35.46       0.00      35.46        4.94     0.59   0.852
  9                         41.60       0.00       0.87       1.16      36.62       0.00      36.62        4.29     0.51   0.880
  10                        41.60       0.00       0.75       6.77      31.55       0.00      31.55        7.11     0.85   0.758
  11                        41.60       0.00       0.81       3.98      33.91       0.00      33.91       16.81     2.01   0.815
  12                        41.60       0.00       0.64      11.96      26.83       0.00      26.83       13.09     1.56   0.645
  13                        41.60       0.00       0.80       4.49      33.49       0.00      33.49       15.15     1.81   0.805
  14                        41.60       0.00       0.80       4.54      33.62       0.00      33.62        6.34     0.76   0.808
  15                        41.60       0.00       0.74       7.31      31.00       0.00      31.00       10.48     1.25   0.745
  16                        41.60       0.00       0.76       6.04      32.09       0.00      32.09        9.48     1.13   0.771
  17                        41.60       0.00       0.72       8.30      30.10       0.00      30.10       12.60     1.50   0.724
  18                        41.60       0.00       0.82       3.27      34.54       0.00      34.54       14.26     1.71   0.830
  19                        41.60       0.00       0.82       3.42      34.37       0.00      34.37        7.73     0.93   0.826
  20                        41.60       0.00       0.81       3.65      33.95       0.00      33.95       18.22     2.19   0.816
  21                        41.60       0.00       0.87       1.22      36.37       0.00      36.37       11.41     1.37   0.874
  22                        41.60       0.00       0.85       1.96      35.65       0.00      35.65        4.38     0.53   0.857
  23                        41.60       0.00       0.78       5.09      32.82       0.00      32.82       18.79     2.25   0.789
  24                        41.60       0.00       0.76       6.35      31.66       0.00      31.66        5.61     0.67   0.761
  25                        41.60       0.00       0.81       3.90      34.13       0.00      34.13        6.91     0.82   0.820
  26                        41.60       0.00       0.69       9.49      28.76       0.00      28.76       10.09     1.21   0.691
  27                        41.60       0.00       0.83       3.11      34.44       0.00      34.44       14.55     1.75   0.828
  28                        41.60       0.00       0.84       2.29      35.28       0.00      35.28       16.68     2.00   0.848
  29                        41.60       0.00       0.75       6.46      31.89       0.00      31.89        7.45     0.89   0.767
  30                        41.60       0.00       0.86       1.40      36.62       0.00      36.62        2.63     0.31   0.880
  31                        41.60       0.00       0.87       0.87      36.75       0.00      36.75        8.10     0.97   0.883
  32                        41.60       0.00       0.85       1.85      35.81       0.00      35.81       15.47     1.85   0.861
  33                        41.60       0.00       0.86       1.35      36.20       0.00      36.20       12.75     1.53   0.870
  34                        41.60       0.00       0.80       4.21      33.72       0.00      33.72        9.89     1.18   0.811
  35                        41.60       0.00       0.83       3.14      34.67       0.00      34.67       14.38     1.72   0.834
  36                        41.60       0.00       0.68       9.91      28.70       0.00      28.70       11.29     1.35   0.690
  37                        41.60       0.00       0.85       2.25      35.46       0.00      35.46        7.87     0.94   0.852
  38                        41.60       0.00       0.79       4.71      33.32       0.00      33.32       12.71     1.52   0.801
  39                        41.60       0.00       0.72       8.27      30.17       0.00      30.17       12.74     1.52   0.725
  40                        41.60       0.00       0.80       4.50      33.49       0.00      33.49        7.66     0.92   0.805
  41                        41.60       0.00       0.81       3.66      34.38       0.00      34.38        6.78     0.81   0.826
  42                        41.60       0.00       0.81       3.70      33.97       0.00      33.97        8.39     1.01   0.817
  43                        41.60       0.00       0.68       9.73      28.65       0.00      28.65       22.64     2.71   0.689
  44                        41.60       0.00       0.73       7.58      30.56       0.00      30.56       14.77     1.77   0.735
  45                        41.60       0.00       0.69       9.65      28.79       0.00      28.79       20.83     2.49   0.692
  46                        41.60       0.00       0.66      10.75      28.02       0.00      28.02       14.01     1.66   0.674
  47                        41.60       0.00       0.70       9.20      29.19       0.00      29.19       34.03     4.07   0.702
  48                        41.60       0.00       0.83       2.88      34.61       0.00      34.61       20.09     2.41   0.832
  49                        41.60       0.00       0.76       6.16      31.70       0.00      31.70       21.46     2.57   0.762
  50                        41.60       0.00       0.84       2.34      34.90       0.00      34.90       13.72     1.64   0.839
  51                        41.60       0.00       0.81       4.04      33.46       0.00      33.46        6.26     0.75   0.804
  52                        41.60       0.00       0.39      23.34      16.72       0.00      16.72       17.16     2.02   0.402
  53                        41.60       0.00       0.57      15.15      24.06       0.00      24.06       25.63     3.04   0.578
  54                        41.60       0.00       0.70       8.96      29.53       0.00      29.53        7.20     0.86   0.710
  55                        41.60       0.00       0.40      22.91      17.10       0.00      17.10       13.49     1.59   0.411
  56                        41.60       0.00       0.15      34.55       6.57       0.00       6.57        5.35     0.62   0.158
  57                        41.60       0.00       0.79       4.63      33.07       0.00      33.07       27.47     3.30   0.795
  58                        41.60       0.00       0.74       7.35      30.96       0.00      30.96        5.10     0.61   0.744
  59                        41.60       0.00       0.72       8.17      30.48       0.00      30.48        3.88     0.46   0.733
  60                        41.60       0.00       0.27      29.07      11.55       0.00      11.55        3.31     0.39   0.278
  61                        41.60       0.00       0.42      22.11      17.70       0.00      17.70        6.67     0.79   0.425
  62                        41.60       0.00       0.58      14.47      24.44       0.00      24.44       28.64     3.42   0.587
  63                        41.60       0.00       0.79       4.59      32.98       0.00      32.98       63.77     7.64   0.793
  64                        41.60       0.00       0.59      13.99      25.04       0.00      25.04        5.38     0.64   0.602
  65                        41.60       0.00       0.81       4.06      33.49       0.00      33.49       22.52     2.70   0.805
  66                        41.60       0.00       0.63      12.03      26.58       0.00      26.58        6.77     0.81   0.639
  67                        41.60       0.00       0.59      13.97      25.12       0.00      25.12        8.12     0.96   0.604
  68                        41.60       0.00       0.71       8.45      30.05       0.00      30.05        3.34     0.40   0.722
  69                        41.60       0.00       0.42      22.14      17.89       0.00      17.89        5.73     0.67   0.430
  70                        41.60       0.00       0.59      14.22      24.75       0.00      24.75       20.36     2.43   0.595
  71                        41.60       0.00       0.73       7.78      30.65       0.00      30.65        3.76     0.45   0.737
  72                        41.60       0.00       0.77       5.94      32.30       0.00      32.30        4.02     0.48   0.776
  73                        41.60       0.00       0.69       9.29      29.41       0.00      29.41        4.89     0.58   0.707
  74                        41.60       0.00       0.66      10.80      28.00       0.00      28.00        6.03     0.72   0.673
  75                        41.60       0.00       0.74       7.37      31.04       0.00      31.04        4.47     0.53   0.746
  76                        41.60       0.00       0.77       5.59      32.70       0.00      32.70        3.17     0.38   0.786
  77                        41.60       0.00       0.82       3.20      34.71       0.00      34.71        3.76     0.45   0.834
  78                        41.60       0.00       0.80       4.55      33.45       0.00      33.45        3.68     0.44   0.804
  79                        41.60       0.00       0.35      25.35      14.90       0.00      14.90       15.80     1.86   0.358
  80                        41.60       0.00       0.66      10.98      27.56       0.00      27.56       17.25     2.07   0.663
  81                        41.60       0.00       0.67      10.49      27.96       0.00      27.96       12.19     1.46   0.672
  82                        41.60       0.00       0.64      11.81      26.79       0.00      26.79       24.57     2.94   0.644
  83                        41.60       0.00       0.80       4.36      33.73       0.00      33.73        4.12     0.49   0.811
  84                        41.60       0.00       0.75       6.46      31.74       0.00      31.74        3.79     0.45   0.763
  85                        41.60       0.00       0.89       0.32      37.47       0.00      37.47        3.48     0.41   0.901
  86                        41.60       0.00       0.82       3.51      34.43       0.00      34.43        5.07     0.61   0.828
  87                        41.60       0.00       0.87       0.89      36.67       0.00      36.67        4.82     0.58   0.882
  88                        41.60       0.00       0.78       5.19      33.01       0.00      33.01        3.16     0.38   0.794
  89                        41.60       0.00       0.82       3.34      34.65       0.00      34.65        6.67     0.80   0.833
  90                        41.60       0.00       0.89       0.01      37.92       0.00      37.92        0.44     0.05   0.911
  91                        41.60       0.00       0.74       6.97      30.99       0.00      30.99        6.76     0.81   0.745
  92                        41.60       0.00       0.82       3.24      34.69       0.00      34.69        4.34     0.52   0.834
  93                        41.60       0.00       0.67      10.33      28.24       0.00      28.24       14.45     1.73   0.679
  94                        41.60       0.00       0.60      13.48      25.75       0.00      25.75        1.80     0.21   0.619
  95                        41.60       0.00       0.89       0.05      37.70       0.00      37.70        0.82     0.10   0.906
  96                        41.60       0.00       0.72       8.06      30.45       0.00      30.45        3.72     0.44   0.732
  97                        41.60       0.00       0.87       0.88      36.84       0.00      36.84        3.66     0.44   0.886
  98                        41.60       0.00       0.72       7.86      30.66       0.00      30.66        3.78     0.45   0.737
  99                        41.60       0.00       0.36      24.89      15.35       0.00      15.35        5.70     0.67   0.369
  100                       41.60       0.00       0.40      23.02      17.06       0.00      17.06        4.38     0.51   0.410
  101                       41.60       0.00       0.41      22.57      17.38       0.00      17.38        8.52     1.01   0.418
  102                       41.60       0.00       0.67      10.58      28.09       0.00      28.09        6.85     0.82   0.675
  103                       41.60       0.00       0.22      31.23       9.65       0.00       9.65        3.51     0.41   0.232
  104                       41.60       0.00       0.15      34.58       6.51       0.00       6.51        6.31     0.73   0.156
  105                       41.60       0.00       0.73       7.39      31.08       0.00      31.08        4.07     0.48   0.747
  106                       41.60       0.00       0.40      23.07      16.98       0.00      16.98        4.14     0.49   0.408
  
  
  ******************
  Node Depth Summary
  ******************
  
  ---------------------------------------------------------------------------------
                                 Average  Maximum  Maximum  Time of Max    Reported
                                   Depth    Depth      HGL   Occurrence   Max Depth
  Node                 Type       Meters   Meters   Meters  days hr:min      Meters
  ---------------------------------------------------------------------------------
  jd1                  JUNCTION     0.15     0.23   273.23     0  04:00        0.23
  jd2                  JUNCTION     1.46     3.00   270.00     0  03:16        3.00
  jd3                  JUNCTION     2.66     3.00   266.00     0  02:43        3.00
  jd4                  JUNCTION     1.75     3.00   270.00     0  03:06        3.00
  jd5                  JUNCTION     0.10     0.16   274.16     0  04:00        0.16
  jd6                  JUNCTION     0.13     0.21   275.21     0  04:00        0.21
  jd7                  JUNCTION     0.38     0.56   264.66     0  04:00        0.56
  jd8                  JUNCTION     2.02     3.00   267.00     0  02:46        3.00
  jd9                  JUNCTION     1.80     3.00   268.00     0  02:56        3.00
  jd10                 JUNCTION     2.69     3.00   273.00     0  02:37        3.00
  jd11                 JUNCTION     0.12     0.19   282.19     0  04:00        0.19
  jd12                 JUNCTION     2.70     3.00   272.00     0  02:34        3.00
  jd13                 JUNCTION     0.15     0.24   289.24     0  04:00        0.24
  jd14                 JUNCTION     1.40     3.00   283.00     0  03:16        3.00
  jd15                 JUNCTION     0.36     0.61   278.61     0  04:00        0.61
  jd16                 JUNCTION     0.39     0.66   274.66     0  04:00        0.66
  jd17                 JUNCTION     2.24     3.00   278.80     0  02:52        3.00
  jd18                 JUNCTION     1.40     3.00   282.00     0  03:20        3.00
  jd19                 JUNCTION     1.67     3.00   270.00     0  03:04        3.00
  jd20                 JUNCTION     0.24     0.37   273.37     0  04:00        0.37
  jd21                 JUNCTION     2.65     3.00   273.00     0  02:42        3.00
  jd22                 JUNCTION     2.00     3.00   275.00     0  03:04        3.00
  jd23                 JUNCTION     0.78     3.00   281.00     0  03:37        1.85
  jd24                 JUNCTION     0.17     0.28   285.28     0  04:00        0.28
  jd25                 JUNCTION     0.51     2.29   281.29     0  04:01        1.17
  jd26                 JUNCTION     1.43     3.00   288.00     0  03:15        3.00
  jd27                 JUNCTION     0.29     0.51   291.51     0  04:02        0.51
  jd28                 JUNCTION     2.72     3.00   290.00     0  02:30        3.00
  jd29                 JUNCTION     0.12     0.19   299.19     0  04:00        0.19
  jd30                 JUNCTION     0.16     0.25   290.25     0  04:00        0.25
  jd31                 JUNCTION     1.25     3.00   275.00     0  02:54        1.88
  jd32                 JUNCTION     2.70     3.00   275.00     0  02:34        3.00
  jd33                 JUNCTION     0.24     0.40   289.40     0  04:00        0.40
  jd34                 JUNCTION     0.91     3.00   297.00     0  03:21        2.18
  jd35                 JUNCTION     2.74     3.00   292.00     0  02:24        3.00
  jd36                 JUNCTION     1.52     3.00   302.00     0  03:12        3.00
  jd37                 JUNCTION     1.51     3.00   306.00     0  03:11        3.00
  jd38                 JUNCTION     0.75     3.00   300.00     0  03:36        1.56
  jd39                 JUNCTION     2.66     3.00   297.00     0  02:42        3.00
  jd40                 JUNCTION     1.69     3.00   302.00     0  03:10        3.00
  jd41                 JUNCTION     2.58     3.00   296.00     0  03:02        3.00
  jd42                 JUNCTION     0.25     0.41   305.41     0  04:01        0.41
  jd43                 JUNCTION     1.63     3.00   300.00     0  03:07        3.00
  jd44                 JUNCTION     1.65     3.00   286.00     0  03:10        3.00
  jd45                 JUNCTION     2.68     3.00   282.00     0  02:39        3.00
  jd46                 JUNCTION     0.72     3.00   278.00     0  03:52        1.89
  jd47                 JUNCTION     0.19     0.30   315.30     0  04:00        0.30
  jd48                 JUNCTION     0.13     0.22   325.22     0  04:00        0.22
  jd49                 JUNCTION     0.34     0.58   289.58     0  04:01        0.58
  jd50                 JUNCTION     2.72     3.00   278.00     0  02:29        3.00
  jd51                 JUNCTION     2.56     3.00   313.00     0  03:04        3.00
  jd52                 JUNCTION     1.07     3.00   326.00     0  03:17        2.01
  jd53                 JUNCTION     1.53     3.00   325.00     0  03:15        3.00
  jd54                 JUNCTION     0.35     0.58   326.58     0  04:00        0.58
  jd55                 JUNCTION     1.98     3.00   325.00     0  03:04        3.00
  jd56                 JUNCTION     0.25     0.41   327.41     0  04:00        0.41
  jd59                 JUNCTION     2.53     3.00   320.80     0  03:07        3.00
  jd60                 JUNCTION     2.70     3.00   319.00     0  02:33        3.00
  jd61                 JUNCTION     0.18     0.29   329.29     0  04:00        0.29
  jd62                 JUNCTION     0.08     0.12   335.12     0  04:00        0.12
  jd63                 JUNCTION     0.08     0.14   324.14     0  04:00        0.14
  jd64                 JUNCTION     2.40     3.00   321.00     0  03:07        2.92
  jd65                 JUNCTION     1.96     3.00   307.00     0  02:57        3.00
  jd66                 JUNCTION     2.68     3.00   304.00     0  02:38        3.00
  jd69                 JUNCTION     0.29     0.49   333.49     0  04:00        0.49
  jd79                 JUNCTION     2.65     3.00   274.00     0  02:31        3.00
  jd80                 JUNCTION     2.31     3.00   279.00     0  02:42        3.00
  jd81                 JUNCTION     0.18     0.30   288.30     0  04:00        0.30
  jd83                 JUNCTION     2.75     3.00   323.00     0  02:21        3.00
  jd84                 JUNCTION     1.39     3.00   326.00     0  03:13        3.00
  jd85                 JUNCTION     2.69     3.00   324.00     0  02:36        3.00
  jd87                 JUNCTION     2.69     3.00   322.00     0  02:35        3.00
  jd89                 JUNCTION     0.20     0.33   324.33     0  04:00        0.33
  jd90                 JUNCTION     0.17     0.28   328.28     0  04:00        0.28
  jd92                 JUNCTION     0.18     0.31   326.31     0  04:00        0.31
  jd93                 JUNCTION     1.54     3.00   327.00     0  03:14        3.00
  jd94                 JUNCTION     1.03     3.00   329.20     0  03:20        2.24
  jd95                 JUNCTION     1.24     3.00   330.00     0  03:20        2.76
  jd96                 JUNCTION     2.72     3.00   308.00     0  02:30        3.00
  jd97                 JUNCTION     1.30     3.00   330.20     0  03:20        2.92
  jd98                 JUNCTION     0.24     0.41   329.41     0  04:00        0.41
  jd99                 JUNCTION     2.68     3.00   327.00     0  02:39        3.00
  jd101                JUNCTION     0.13     0.22   321.22     0  04:00        0.22
  jd102                JUNCTION     0.54     3.00   327.00     0  03:39        1.29
  jd103                JUNCTION     0.14     0.22   318.22     0  04:00        0.22
  jd106                JUNCTION     2.61     3.00   287.00     0  02:53        3.00
  jd107                JUNCTION     0.26     0.42   332.42     0  04:00        0.42
  jd108                JUNCTION     1.21     1.53   327.53     0  03:37        1.53
  jd109                JUNCTION     0.21     0.34   343.34     0  04:00        0.34
  jd110                JUNCTION     2.70     3.00   327.00     0  02:36        3.00
  jd111                JUNCTION     0.09     0.14   344.14     0  04:00        0.14
  jd112                JUNCTION     0.11     0.18   334.18     0  04:00        0.18
  jd113                JUNCTION     0.12     0.20   348.20     0  04:00        0.20
  jd114                JUNCTION     2.69     3.00   317.00     0  02:37        3.00
  jd117                JUNCTION     1.83     3.00   319.00     0  02:42        3.00
  jd118                JUNCTION     0.11     0.18   330.18     0  04:00        0.18
  jd120                JUNCTION     0.22     0.37   327.37     0  04:00        0.37
  jd121                JUNCTION     0.21     0.34   320.34     0  04:00        0.34
  jd122                JUNCTION     2.66     3.00   276.00     0  02:41        3.00
  jd123                JUNCTION     2.65     3.00   276.20     0  02:44        3.00
  jd124                JUNCTION     2.76     3.00   271.00     0  02:17        3.00
  jd125                JUNCTION     1.74     3.00   278.00     0  03:05        3.00
  jd126                JUNCTION     2.74     3.00   275.00     0  02:23        3.00
  jd135                JUNCTION     0.18     0.30   289.30     0  04:00        0.30
  jd136                JUNCTION     0.34     0.56   341.56     0  04:00        0.56
  psk1                 OUTFALL      0.11     0.18   279.18     0  04:00        0.18
  psk2                 OUTFALL      0.16     0.25   270.25     0  04:00        0.25
  psk3                 OUTFALL      0.39     0.66   271.66     0  04:00        0.66
  psk4                 OUTFALL      0.00     0.00   280.00     0  00:00        0.00
  psk5                 OUTFALL      0.15     0.23   263.23     0  04:00        0.23
  psk6                 OUTFALL      0.10     0.16   259.16     0  04:00        0.16
  psk7                 OUTFALL      0.38     0.56   262.56     0  04:00        0.56
  psk8                 OUTFALL      0.00     0.00   317.00     0  00:00        0.00
  
  
  *******************
  Node Inflow Summary
  *******************
  
  -------------------------------------------------------------------------------------------------
                                  Maximum  Maximum                  Lateral       Total        Flow
                                  Lateral    Total  Time of Max      Inflow      Inflow     Balance
                                   Inflow   Inflow   Occurrence      Volume      Volume       Error
  Node                 Type           CMS      CMS  days hr:min    10^6 ltr    10^6 ltr     Percent
  -------------------------------------------------------------------------------------------------
  jd1                  JUNCTION     0.781    1.116     0  04:00        6.57        9.75       0.413
  jd2                  JUNCTION     1.210    1.601     0  04:00        10.1        13.5       0.536
  jd3                  JUNCTION     1.452    3.171     0  04:00        12.1        29.8       1.368
  jd4                  JUNCTION     1.747    1.942     0  04:00        14.5        16.2       0.645
  jd5                  JUNCTION     0.511    0.837     0  04:00        4.27        7.11       0.193
  jd6                  JUNCTION     0.590    0.590     0  04:00        4.92        4.92       0.247
  jd7                  JUNCTION     0.298    2.539     0  04:00        2.51        25.2       0.429
  jd8                  JUNCTION     0.414    1.360     0  04:00        3.48        15.2       1.632
  jd9                  JUNCTION     0.318    1.386     0  04:00        2.68        15.1       1.160
  jd10                 JUNCTION     0.847    1.072     0  04:00        7.09        8.97       1.149
  jd11                 JUNCTION     1.251    1.251     0  04:00        10.4        10.4       0.293
  jd12                 JUNCTION     0.942    2.072     0  04:00        7.85        17.2       0.813
  jd13                 JUNCTION     1.707    1.707     0  04:00        14.2        14.2       0.238
  jd14                 JUNCTION     2.001    2.262     0  04:00        16.6        18.8       0.388
  jd15                 JUNCTION     0.824    1.796     0  03:29        6.89        15.2       1.008
  jd16                 JUNCTION     0.886    3.571     0  04:00        7.42        29.5       0.420
  jd17                 JUNCTION     1.852    3.841     0  04:00        15.4        35.1       2.271
  jd18                 JUNCTION     1.469    2.146     0  04:00        12.3        17.9       0.620
  jd19                 JUNCTION     1.364    2.438     0  04:00        11.4        21.5       0.403
  jd20                 JUNCTION     1.133    1.382     0  04:00        9.45        13.4       0.655
  jd21                 JUNCTION     0.525    3.080     0  04:00        4.37        28.2       1.216
  jd22                 JUNCTION     0.925    1.837     0  04:01        7.71        15.7       0.529
  jd23                 JUNCTION     0.915    2.755     0  04:01        7.63        22.5       0.269
  jd24                 JUNCTION     1.503    1.503     0  04:00        12.6        12.6       0.286
  jd25                 JUNCTION     1.182    1.722     0  04:00        9.86        14.3       0.471
  jd26                 JUNCTION     1.721    2.719     0  04:00        14.3          23       0.425
  jd27                 JUNCTION     1.770    2.484     0  04:00        14.7        21.7       0.423
  jd28                 JUNCTION     2.412    3.072     0  04:00          20        26.2       0.517
  jd29                 JUNCTION     0.969    0.969     0  04:00        8.08        8.08       0.187
  jd30                 JUNCTION     1.007    2.839     0  04:00        8.37        24.1       0.227
  jd31                 JUNCTION     0.673    1.424     0  04:00         5.6        12.1       3.899
  jd32                 JUNCTION     1.366    4.520     0  04:01        11.4        40.3       0.627
  jd33                 JUNCTION     1.346    2.327     0  04:00        11.3        19.4       0.261
  jd34                 JUNCTION     1.665    1.665     0  04:00          14          14       0.214
  jd35                 JUNCTION     1.519    3.636     0  04:00        12.7        33.7       0.398
  jd36                 JUNCTION     2.575    3.581     0  04:00        21.4        31.2       0.471
  jd37                 JUNCTION     2.709    2.709     0  04:00        22.6        22.6       0.324
  jd38                 JUNCTION     2.490    3.389     0  04:00        20.8          30       0.681
  jd39                 JUNCTION     1.726    4.642     0  04:00        14.4        43.7       1.183
  jd40                 JUNCTION     2.939    5.129     0  04:00        24.5        46.7       0.725
  jd41                 JUNCTION     2.065    6.643     0  04:00        17.2        58.6       3.765
  jd42                 JUNCTION     2.702    2.963     0  04:00        22.5        24.7       0.447
  jd43                 JUNCTION     3.041    5.110     0  04:00        25.5        43.4       0.758
  jd44                 JUNCTION     4.069    6.731     0  04:00        33.9        62.1       0.797
  jd45                 JUNCTION     1.644    3.869     0  04:00        13.7        37.3       0.872
  jd46                 JUNCTION     0.751    0.751     0  04:00        6.24        6.24       1.190
  jd47                 JUNCTION     2.430    2.430     0  04:00        20.3        20.3       0.306
  jd48                 JUNCTION     0.672    0.672     0  04:00        5.71        5.71       0.330
  jd49                 JUNCTION     3.296    3.296     0  04:00        27.4        27.4       0.366
  jd50                 JUNCTION     3.422    6.975     0  04:00        28.6        66.1       0.663
  jd51                 JUNCTION     0.716    3.292     0  04:00        6.01        27.5       5.228
  jd52                 JUNCTION     1.459    4.801     0  03:17        12.2        27.9       0.906
  jd53                 JUNCTION     0.811    3.054     0  04:00        6.74        27.9       0.424
  jd54                 JUNCTION     0.437    2.170     0  04:00        3.65        18.1       0.486
  jd55                 JUNCTION     0.795    3.207     0  04:00        6.65        25.4       3.609
  jd56                 JUNCTION     0.483    1.414     0  04:00        4.05        11.8       0.406
  jd59                 JUNCTION     0.480    2.380     0  04:00        4.01        19.5       4.147
  jd60                 JUNCTION     0.859    1.822     0  04:00        7.18        15.3       0.862
  jd61                 JUNCTION     0.964    1.083     0  04:00         8.1        9.11       0.287
  jd62                 JUNCTION     0.388    0.388     0  04:00         3.3         3.3       0.141
  jd63                 JUNCTION     0.533    0.533     0  04:00        4.46        4.46       0.208
  jd64                 JUNCTION     0.448    1.107     0  04:00        3.74        9.24       4.174
  jd65                 JUNCTION     7.645    7.645     0  04:00        63.6        63.6       0.268
  jd66                 JUNCTION     1.006    2.918     0  04:00        8.49        24.6       1.308
  jd69                 JUNCTION     1.861    1.912     0  04:00        15.8        16.2       0.406
  jd79                 JUNCTION     1.811    2.727     0  04:00        15.1          24       0.738
  jd80                 JUNCTION     2.012    2.619     0  04:00        16.8        22.1       0.689
  jd81                 JUNCTION     1.528    1.528     0  04:00        12.7        12.7       0.105
  jd83                 JUNCTION     1.592    2.171     0  04:00        13.5        18.3       0.471
  jd84                 JUNCTION     2.024    2.024     0  04:00        17.1        17.1       0.302
  jd85                 JUNCTION     0.460    0.753     0  04:00        3.87        6.35       1.355
  jd87                 JUNCTION     0.377    0.909     0  04:00        3.16        7.62       0.985
  jd89                 JUNCTION     0.439    0.439     0  04:00        3.66        3.66       0.407
  jd90                 JUNCTION     0.448    0.448     0  04:00        3.75        3.75       0.304
  jd92                 JUNCTION     0.376    0.376     0  04:00        3.15        3.15       0.228
  jd93                 JUNCTION     0.811    1.753     0  04:00        6.75        14.6       0.489
  jd94                 JUNCTION     0.052    0.942     0  04:00       0.434        7.84       0.443
  jd95                 JUNCTION     0.098    0.891     0  04:00       0.821        7.45       0.626
  jd96                 JUNCTION     0.734    0.979     0  04:00        6.29        8.33       1.167
  jd97                 JUNCTION     0.793    0.793     0  04:00        6.65        6.65       0.174
  jd98                 JUNCTION     0.443    0.443     0  04:00        3.71        3.71       0.261
  jd99                 JUNCTION     0.213    0.493     0  04:00         1.8        4.55       1.264
  jd101                JUNCTION     0.580    1.157     0  04:00        4.87        9.66       0.254
  jd102                JUNCTION     0.577    0.577     0  04:00        4.81        4.81       0.362
  jd103                JUNCTION     0.398    0.398     0  04:00        3.33        3.33       0.123
  jd106                JUNCTION     0.311    1.801     0  04:00        2.62        15.1       2.632
  jd107                JUNCTION     0.449    1.477     0  04:00        3.77        12.4       0.470
  jd108                JUNCTION     0.488    0.488     0  04:00        4.13        4.15       1.606
  jd109                JUNCTION     0.816    0.816     0  04:00        6.83        6.83       0.115
  jd110                JUNCTION     0.620    0.923     0  04:00        5.34         7.9       1.957
  jd111                JUNCTION     0.515    0.515     0  04:00        4.36        4.36       0.237
  jd112                JUNCTION     0.606    1.682     0  04:00        5.06        14.2       0.199
  jd113                JUNCTION     0.407    0.407     0  04:00         3.5         3.5       0.068
  jd114                JUNCTION     0.491    4.207     0  04:00        4.11        39.6       0.811
  jd117                JUNCTION     0.453    1.481     0  04:00        3.78        12.5       1.229
  jd118                JUNCTION     0.415    0.415     0  04:00        3.47        3.47       0.061
  jd120                JUNCTION     0.518    0.518     0  04:00        4.32        4.32       0.202
  jd121                JUNCTION     0.639    0.639     0  04:00        5.36        5.36       0.243
  jd122                JUNCTION     1.518    5.391     0  04:01        12.7        48.7       1.174
  jd123                JUNCTION     1.561    3.935     0  04:00        13.1        40.1       1.754
  jd124                JUNCTION     2.251    3.324     0  04:00        18.7        32.5       0.186
  jd125                JUNCTION     2.187    3.862     0  04:00        18.2          38       0.406
  jd126                JUNCTION     3.173    4.036     0  04:00        26.4        34.5       0.298
  jd135                JUNCTION     0.808    0.808     0  04:00        6.76        6.76       0.183
  jd136                JUNCTION     0.670    1.077     0  04:00        5.68        9.17       0.504
  psk1                 OUTFALL      0.000    0.812     0  04:00           0         6.8       0.000
  psk2                 OUTFALL      0.000    2.157     0  04:00           0        18.1       0.000
  psk3                 OUTFALL      0.000    3.570     0  04:00           0        29.3       0.000
  psk4                 OUTFALL      0.000    0.000     0  00:00           0           0       0.000 ltr
  psk5                 OUTFALL      0.000    0.724     0  04:00           0         6.3       0.000
  psk6                 OUTFALL      0.000    0.641     0  04:00           0        5.44       0.000
  psk7                 OUTFALL      0.000    2.539     0  04:00           0        25.1       0.000
  psk8                 OUTFALL      0.000    0.000     0  00:00           0           0       0.000 ltr
  
  
  **********************
  Node Surcharge Summary
  **********************
  
  Surcharging occurs when water rises above the top of the highest conduit.
  ---------------------------------------------------------------------
                                               Max. Height   Min. Depth
                                   Hours       Above Crown    Below Rim
  Node                 Type      Surcharged         Meters       Meters
  ---------------------------------------------------------------------
  jd2                  JUNCTION        1.91          2.200        0.000
  jd3                  JUNCTION        5.28          2.200        0.000
  jd4                  JUNCTION        2.49          2.200        0.000
  jd8                  JUNCTION        4.01          2.200        0.000
  jd9                  JUNCTION        2.65          2.200        0.000
  jd10                 JUNCTION        5.38          2.400        0.000
  jd12                 JUNCTION        5.43          2.400        0.000
  jd14                 JUNCTION        1.84          2.400        0.000
  jd17                 JUNCTION        4.01          2.200        0.000
  jd18                 JUNCTION        1.79          2.000        0.000
  jd19                 JUNCTION        2.25          2.200        0.000
  jd21                 JUNCTION        5.30          2.200        0.000
  jd22                 JUNCTION        5.20          2.400        0.000
  jd23                 JUNCTION        1.48          2.000        0.000
  jd25                 JUNCTION        1.00          1.294        0.706
  jd26                 JUNCTION        1.87          2.400        0.000
  jd28                 JUNCTION        5.50          2.400        0.000
  jd31                 JUNCTION        5.09          2.200        0.000
  jd32                 JUNCTION        5.43          2.200        0.000
  jd34                 JUNCTION        1.68          2.400        0.000
  jd35                 JUNCTION        5.60          2.400        0.000
  jd36                 JUNCTION        2.04          2.400        0.000
  jd37                 JUNCTION        2.01          2.400        0.000
  jd38                 JUNCTION        1.45          2.000        0.000
  jd39                 JUNCTION        5.29          2.000        0.000
  jd40                 JUNCTION        2.29          2.200        0.000
  jd41                 JUNCTION        4.96          1.000        0.000
  jd43                 JUNCTION        2.13          2.200        0.000
  jd44                 JUNCTION        2.18          2.000        0.000
  jd45                 JUNCTION        5.35          2.000        0.000
  jd46                 JUNCTION        1.20          2.200        0.000
  jd50                 JUNCTION        5.52          2.200        0.000
  jd51                 JUNCTION        4.92          1.350        0.000
  jd52                 JUNCTION        1.90          1.500        0.000
  jd53                 JUNCTION        1.99          1.800        0.000
  jd55                 JUNCTION        2.38          1.500        0.000
  jd59                 JUNCTION        4.88          1.500        0.000
  jd60                 JUNCTION        5.45          2.400        0.000
  jd64                 JUNCTION        4.90          1.800        0.000
  jd65                 JUNCTION        2.94          2.400        0.000
  jd66                 JUNCTION        5.36          2.200        0.000
  jd79                 JUNCTION        5.47          2.400        0.000
  jd80                 JUNCTION        4.47          2.400        0.000
  jd83                 JUNCTION        5.65          2.400        0.000
  jd84                 JUNCTION        1.83          2.400        0.000
  jd85                 JUNCTION        5.40          2.400        0.000
  jd87                 JUNCTION        5.41          2.400        0.000
  jd93                 JUNCTION        2.07          2.200        0.000
  jd94                 JUNCTION        1.83          2.200        0.000
  jd95                 JUNCTION        1.74          2.200        0.000
  jd96                 JUNCTION        5.49          2.200        0.000
  jd97                 JUNCTION        1.76          2.200        0.000
  jd99                 JUNCTION        5.35          2.400        0.000
  jd102                JUNCTION        1.38          2.400        0.000
  jd106                JUNCTION        5.11          2.000        0.000
  jd108                JUNCTION        5.44          0.531        1.469
  jd110                JUNCTION        5.40          2.000        0.000
  jd114                JUNCTION        5.37          2.000        0.000
  jd117                JUNCTION        5.29          2.200        0.000
  jd122                JUNCTION        5.31          2.200        0.000
  jd123                JUNCTION        5.27          2.200        0.000
  jd124                JUNCTION        5.70          2.400        0.000
  jd125                JUNCTION        2.49          2.200        0.000
  jd126                JUNCTION        5.62          2.400        0.000
  
  
  *********************
  Node Flooding Summary
  *********************
  
  Flooding refers to all water that overflows a node, whether it ponds or not.
  --------------------------------------------------------------------------
                                                             Total   Maximum
                                 Maximum   Time of Max       Flood    Ponded
                        Hours       Rate    Occurrence      Volume     Depth
  Node                 Flooded       CMS   days hr:min    10^6 ltr    Meters
  --------------------------------------------------------------------------
  jd2                     1.79     0.392      0  04:00       2.203     0.000
  jd3                     5.28     3.171      0  04:00      29.371     0.000
  jd4                     2.26     1.432      0  04:00       9.585     0.000
  jd8                     2.18     0.265      0  03:50       1.843     0.000
  jd9                     2.17     0.440      0  04:00       3.186     0.000
  jd10                    5.38     1.072      0  04:00       8.870     0.000
  jd12                    5.43     2.072      0  04:00      17.045     0.000
  jd14                    1.76     0.428      0  04:00       2.289     0.000
  jd17                    2.68     3.012      0  04:00      21.659     0.000
  jd18                    1.72     0.789      0  03:20       3.575     0.000
  jd19                    2.11     1.370      0  04:00       9.001     0.000
  jd21                    5.10     3.080      0  04:00      27.569     0.000
  jd22                    2.16     1.013      0  04:01       6.588     0.000
  jd23                    0.01     0.129      0  03:37       0.001     0.000
  jd26                    1.82     0.823      0  04:00       4.859     0.000
  jd28                    5.50     3.072      0  04:00      26.078     0.000
  jd31                    0.01     0.677      0  02:54       0.005     0.000
  jd32                    5.43     4.520      0  04:01      40.085     0.000
  jd34                    0.01     0.103      0  03:21       0.001     0.000
  jd35                    5.60     3.636      0  04:00      33.582     0.000
  jd36                    1.95     1.434      0  04:00       8.880     0.000
  jd37                    1.95     1.271      0  04:00       7.684     0.000
  jd38                    0.01     0.240      0  03:36       0.002     0.000
  jd39                    5.29     4.642      0  04:00      43.207     0.000
  jd40                    2.23     2.567      0  04:00      17.542     0.000
  jd41                    4.95     6.643      0  04:00      56.515     0.000
  jd43                    2.10     3.279      0  04:00      22.056     0.000
  jd44                    2.03     2.830      0  04:00      18.145     0.000
  jd45                    5.35     3.869      0  04:00      36.943     0.000
  jd46                    0.01     0.099      0  03:52       0.001     0.000
  jd50                    5.52     6.975      0  04:00      65.673     0.000
  jd51                    4.92     3.292      0  04:00      26.156     0.000
  jd52                    0.01     2.545      0  03:17       0.063     0.000
  jd53                    1.82     0.945      0  03:15       4.428     0.000
  jd55                    1.88     3.207      0  04:00      20.016     0.000
  jd59                    4.88     2.380      0  04:00      18.702     0.000
  jd60                    5.45     1.822      0  04:00      15.159     0.000
  jd64                    0.01     0.245      0  03:07       0.006     0.000
  jd65                    2.87     6.552      0  04:00      46.129     0.000
  jd66                    5.36     2.918      0  04:00      24.302     0.000
  jd79                    4.33     2.478      0  04:00      19.858     0.000
  jd80                    3.47     2.461      0  04:00      18.422     0.000
  jd83                    5.65     2.171      0  04:00      18.195     0.000
  jd84                    1.78     0.240      0  03:13       0.969     0.000
  jd85                    5.40     0.753      0  04:00       6.266     0.000
  jd87                    5.41     0.909      0  04:00       7.547     0.000
  jd93                    1.74     0.563      0  04:00       3.232     0.000
  jd94                    0.01     0.380      0  03:20       0.003     0.000
  jd95                    0.01     0.217      0  03:20       0.003     0.000
  jd96                    5.49     0.979      0  04:00       8.238     0.000
  jd97                    0.02     0.097      0  03:21       0.004     0.000
  jd99                    5.35     0.493      0  04:00       4.496     0.000
  jd102                   0.01     0.028      0  03:39       0.000     0.000
  jd106                   5.11     1.801      0  04:00      14.711     0.000
  jd110                   5.40     0.923      0  04:00       7.752     0.000
  jd114                   5.31     4.207      0  04:00      39.200     0.000
  jd117                   1.62     0.460      0  02:42       0.278     0.000
  jd122                   5.28     5.391      0  04:01      47.976     0.000
  jd123                   5.05     3.620      0  04:00      33.466     0.000
  jd124                   5.70     3.324      0  04:00      32.466     0.000
  jd125                   2.15     1.476      0  04:00       9.609     0.000
  jd126                   5.62     4.036      0  04:00      34.432     0.000
  
  
  ***********************
  Outfall Loading Summary
  ***********************
  
  -----------------------------------------------------------
                         Flow       Avg       Max       Total
                         Freq      Flow      Flow      Volume
  Outfall Node           Pcnt       CMS       CMS    10^6 ltr
  -----------------------------------------------------------
  psk1                  96.21     0.435     0.812       6.803
  psk2                  96.02     1.168     2.157      18.110
  psk3                  96.38     1.888     3.570      29.341
  psk4                   0.00     0.000     0.000       0.000
  psk5                  96.18     0.400     0.724       6.302
  psk6                  95.91     0.348     0.641       5.443
  psk7                  96.35     1.521     2.539      25.065
  psk8                   0.00     0.000     0.000       0.000
  -----------------------------------------------------------
  System                72.13     5.759     0.000      91.064
  
  
  ********************
  Link Flow Summary
  ********************
  
  -----------------------------------------------------------------------------
                                 Maximum  Time of Max   Maximum    Max/    Max/
                                  |Flow|   Occurrence   |Veloc|    Full    Full
  Link                 Type          CMS  days hr:min     m/sec    Flow   Depth
  -----------------------------------------------------------------------------
  GQ1                  CONDUIT     0.356     0  03:24      1.98    0.93    0.69
  GQ2                  CONDUIT     1.460     0  04:00      2.78    0.69    0.64
  GQ3                  CONDUIT     0.812     0  04:00      6.74    0.03    0.12
  GQ4                  CONDUIT     0.510     0  03:24      1.80    1.00    1.00
  GQ5                  CONDUIT     1.208     0  03:40      2.40    1.00    1.00
  GQ6                  CONDUIT     0.391     0  04:00      1.23    0.18    0.64
  GQ7                  CONDUIT     1.675     0  05:07      3.58    1.00    1.00
  GQ8                  CONDUIT     0.831     0  04:01      1.80    0.79    0.86
  GQ9                  CONDUIT     2.461     0  04:01      5.33    0.87    0.86
  GQ10                 CONDUIT     1.135     0  02:56      4.10    1.04    1.00
  GQ11                 CONDUIT     0.261     0  04:00      1.97    0.28    0.52
  GQ12                 CONDUIT     0.314     0  04:00      1.48    0.34    0.70
  GQ13                 CONDUIT     0.195     0  04:00      0.62    0.09    0.60
  GQ14                 CONDUIT     0.102     0  04:00      1.13    0.14    0.24
  GQ15                 CONDUIT     0.224     0  04:00      4.40    0.90    0.68
  GQ16                 CONDUIT     1.866     0  03:33      4.12    0.90    0.63
  GQ17                 CONDUIT     0.488     0  04:00      2.02    0.15    0.48
  GQ18                 CONDUIT     1.095     0  04:00      2.50    4.94    0.85
  GQ19                 CONDUIT     0.659     0  04:00      2.45    0.08    0.38
  GQ20                 CONDUIT     0.144     0  04:00      0.49    0.08    0.59
  GQ21                 CONDUIT     0.533     0  04:00      1.51    0.17    0.64
  GQ22                 CONDUIT     0.540     0  04:00      1.83    0.17    0.64
  GQ23                 CONDUIT     1.475     0  05:05      2.31    0.72    1.00
  GQ24                 CONDUIT     1.844     0  04:01      3.67    0.91    1.00
  GQ25                 CONDUIT     0.981     0  04:00      4.03    1.10    0.83
  GQ26                 CONDUIT     0.672     0  04:00      2.77    0.79    0.83
  GQ27                 CONDUIT     0.914     0  04:01      3.23    0.92    1.00
  GQ28                 CONDUIT     0.308     0  04:00      0.78    0.33    0.73
  GQ29                 CONDUIT     1.424     0  04:00      2.83    0.66    1.00
  GQ30                 CONDUIT     0.824     0  03:24      2.91    1.00    1.00
  GQ31                 CONDUIT     0.684     0  04:00      2.42    0.91    1.00
  GQ32                 CONDUIT     0.714     0  04:02      2.98    1.15    0.92
  GQ33                 CONDUIT     1.434     0  03:20      5.07    1.00    1.00
  GQ34                 CONDUIT     0.467     0  04:01      1.83    0.73    0.84
  GQ35                 CONDUIT     0.711     0  03:12      2.52    1.32    1.00
  GQ36                 CONDUIT     0.969     0  03:11      3.43    1.20    1.00
  GQ37                 CONDUIT     0.464     0  04:02      1.70    0.66    0.92
  GQ38                 CONDUIT     0.196     0  04:00      0.91    0.28    0.71
  GQ39                 CONDUIT     0.782     0  03:36      2.76    1.00    1.00
  GQ40                 CONDUIT     0.658     0  04:02      2.46    0.82    0.92
  GQ41                 CONDUIT     1.557     0  04:00      1.98    0.72    1.00
  GQ42                 CONDUIT     1.359     0  03:31      2.70    1.00    1.00
  GQ43                 CONDUIT     2.307     0  03:12      4.70    1.03    1.00
  GQ44                 CONDUIT     0.946     0  03:28      1.88    1.00    1.00
  GQ45                 CONDUIT     1.074     0  04:00      2.72    0.43    0.73
  GQ46                 CONDUIT     1.068     0  03:33      2.12    1.00    1.00
  GQ47                 CONDUIT     0.224     0  04:00      1.14    0.21    0.66
  GQ48                 CONDUIT     0.223     0  04:00      1.13    0.21    0.66
  GQ49                 CONDUIT     0.907     0  04:00      4.28    0.34    0.70
  GQ50                 CONDUIT     0.261     0  04:00      1.23    0.34    0.70
  GQ51                 CONDUIT     0.995     0  03:28      3.56    1.52    1.00
  GQ52                 CONDUIT     0.751     0  04:00      1.49    1.00    1.00
  GQ53                 CONDUIT     2.225     0  03:40      2.83    1.00    1.00
  GQ54                 CONDUIT     0.551     0  04:00      2.45    0.47    0.74
  GQ55                 CONDUIT     0.412     0  04:00      2.01    0.28    0.68
  GQ56                 CONDUIT     2.001     0  03:08      4.15    1.09    1.00
  GQ57                 CONDUIT     0.809     0  04:01      1.98    0.53    0.76
  GQ58                 CONDUIT     1.684     0  04:01      4.12    0.53    0.76
  GQ59                 CONDUIT     1.203     0  03:31      2.39    1.00    1.00
  GQ60                 CONDUIT     2.455     0  03:17      1.53    0.59    1.00
  GQ61                 CONDUIT     0.354     0  04:00      0.36    0.04    0.57
  GQ62                 CONDUIT     0.737     0  04:00      0.56    0.07    0.59
  GQ63                 CONDUIT     1.692     0  04:00      0.91    0.05    0.58
  GQ64                 CONDUIT     0.120     0  04:00      1.48    0.09    0.34
  GQ65                 CONDUIT     0.052     0  04:00      0.37    0.09    0.51
  GQ66                 CONDUIT     0.211     0  04:00      0.69    0.06    0.58
  GQ67                 CONDUIT     1.107     0  03:58      0.98    0.77    1.00
  GQ68                 CONDUIT     1.133     0  04:00      1.91    0.36    0.71
  GQ69                 CONDUIT     1.912     0  04:00      4.42    0.68    0.80
  GQ70                 CONDUIT     0.641     0  04:00      8.63    0.09    0.21
  GQ71                 CONDUIT     0.724     0  04:00      6.15    0.18    0.28
  GQ72                 CONDUIT     2.539     0  04:00      5.58    0.61    0.56
  GQ73                 CONDUIT     2.157     0  04:00     13.80    0.14    0.25
  GQ74                 CONDUIT     0.431     0  04:00      1.51    0.08    0.42
  GQ75                 CONDUIT     0.485     0  04:00      0.94    0.14    0.63
  GQ76                 CONDUIT     3.570     0  04:00      6.50    0.77    0.66
  GQ77                 CONDUIT     0.000     0  00:00      0.00    0.00    0.31
  GQ78                 CONDUIT     0.916     0  03:33      3.24    1.00    1.00
  GQ79                 CONDUIT     0.249     0  04:00      1.08    0.54    0.81
  GQ80                 CONDUIT     0.608     0  03:40      2.15    1.00    1.00
  GQ81                 CONDUIT     0.528     0  02:52      1.87    3.35    1.00
  GQ82                 CONDUIT     0.735     0  04:00      3.22    0.51    0.75
  GQ83                 CONDUIT     0.793     0  04:00      3.48    0.51    0.75
  GQ84                 CONDUIT     1.303     0  03:12      4.72    1.03    1.00
  GQ85                 CONDUIT     0.579     0  03:55      2.05    1.00    1.00
  GQ86                 CONDUIT     0.216     0  04:00      1.21    0.09    0.60
  GQ87                 CONDUIT     0.077     0  04:00      0.42    0.11    0.61
  GQ88                 CONDUIT     0.532     0  04:00      2.37    0.47    0.74
  GQ89                 CONDUIT     0.439     0  04:00      1.87    0.58    0.77
  GQ90                 CONDUIT     0.448     0  04:00      2.01    0.45    0.74
  GQ91                 CONDUIT     0.376     0  04:00      1.63    0.46    0.76
  GQ92                 CONDUIT     0.891     0  04:00      1.84    1.28    1.00
  GQ93                 CONDUIT     0.942     0  04:00      1.87    0.81    1.00
  GQ94                 CONDUIT     1.203     0  05:03      2.39    1.43    1.00
  GQ95                 CONDUIT     0.245     0  04:00      0.80    0.06    0.58
  GQ96                 CONDUIT     0.793     0  04:00      1.58    1.35    1.00
  GQ97                 CONDUIT     0.442     0  04:00      2.15    0.80    0.68
  GQ98                 CONDUIT     0.281     0  04:00      1.10    0.40    0.85
  GQ99                 CONDUIT     0.803     0  04:00      0.77    0.04    0.57
  GQ100                CONDUIT     0.577     0  04:00      3.09    0.99    0.68
  GQ101                CONDUIT     0.398     0  04:00      1.92    0.30    0.69
  GQ102                CONDUIT     1.654     0  04:00      4.09    0.50    0.75
  GQ103                CONDUIT     0.553     0  04:01      1.96    0.85    1.00
  GQ104                CONDUIT     1.358     0  04:02      4.97    0.99    0.92
  GQ105                CONDUIT     0.635     0  02:44      1.27    2.02    1.00
  GQ106                CONDUIT     0.431     0  04:00      1.95    0.43    0.73
  GQ107                CONDUIT     1.114     0  03:23      3.94    1.00    1.00
  GQ108                CONDUIT     0.829     0  03:53      1.65    1.00    1.00
  GQ109                CONDUIT     0.340     0  04:00      1.50    0.46    0.75
  GQ110                CONDUIT     0.537     0  04:00      1.10    0.08    0.59
  GQ111                CONDUIT     0.468     0  04:00      2.06    0.43    0.75
  GQ112                CONDUIT     1.477     0  04:00      3.30    0.26    0.42
  GQ113                CONDUIT     0.816     0  04:00      4.31    0.62    0.63
  GQ114                CONDUIT     0.488     0  03:52      0.82    0.20    0.71
  GQ115                CONDUIT     0.211     0  04:00      1.07    0.03    0.23
  GQ116                CONDUIT     0.303     0  04:00      0.66    0.04    0.57
  GQ117                CONDUIT     1.077     0  04:00      4.72    0.67    0.46
  GQ118                CONDUIT     0.407     0  04:00      2.06    0.14    0.48
  GQ119                CONDUIT     2.302     0  03:24      4.58    1.00    1.00
  GQ120                CONDUIT     0.000     0  00:00      0.00    0.00    0.50
  GQ121                CONDUIT     1.414     0  03:36      2.81    1.00    1.00
  GQ122                CONDUIT     0.614     0  04:00      1.90    0.11    0.61
  GQ123                CONDUIT     0.415     0  04:00      2.13    0.20    0.65
  GQ124                CONDUIT     0.257     0  04:00      1.12    0.11    0.48
  GQ125                CONDUIT     0.518     0  04:00      2.11    0.58    0.81
  GQ126                CONDUIT     0.639     0  04:00      2.69    0.61    0.78
  GQ127                CONDUIT     0.840     0  03:12      1.74    1.07    1.00
  GQ128                CONDUIT     2.169     0  04:01      2.66    0.47    0.74
  GQ129                CONDUIT     1.313     0  03:48      2.61    1.00    1.00
  GQ130                CONDUIT     1.073     0  03:23      3.79    1.00    1.00
  GQ131                CONDUIT     0.862     0  03:26      3.05    1.00    1.00
  
  
  ***************************
  Flow Classification Summary
  ***************************
  
  -------------------------------------------------------------------------------------
                      Adjusted    ---------- Fraction of Time in Flow Class ---------- 
                       /Actual         Up    Down  Sub   Sup   Up    Down  Norm  Inlet 
  Conduit               Length    Dry  Dry   Dry   Crit  Crit  Crit  Crit  Ltd   Ctrl  
  -------------------------------------------------------------------------------------
  GQ1                     1.00   0.03  0.00  0.00  0.46  0.51  0.00  0.00  0.00  0.00
  GQ2                     1.00   0.03  0.00  0.00  0.06  0.90  0.00  0.00  0.84  0.00
  GQ3                     1.00   0.04  0.00  0.00  0.00  0.96  0.00  0.00  0.17  0.00
  GQ4                     1.00   0.03  0.00  0.00  0.97  0.00  0.00  0.00  0.46  0.00
  GQ5                     1.00   0.03  0.00  0.00  0.97  0.00  0.00  0.00  0.59  0.00
  GQ6                     1.00   0.03  0.00  0.00  0.97  0.00  0.00  0.00  0.87  0.00
  GQ7                     1.00   0.03  0.00  0.00  0.56  0.41  0.00  0.00  0.07  0.00
  GQ8                     1.00   0.03  0.00  0.00  0.97  0.00  0.00  0.00  0.67  0.00
  GQ9                     1.00   0.03  0.00  0.00  0.44  0.52  0.00  0.00  0.71  0.00
  GQ10                    1.00   0.03  0.00  0.00  0.73  0.24  0.00  0.00  0.49  0.00
  GQ11                    1.00   0.03  0.00  0.00  0.26  0.70  0.00  0.00  0.82  0.00
  GQ12                    1.00   0.03  0.00  0.00  0.97  0.00  0.00  0.00  0.87  0.00
  GQ13                    1.00   0.03  0.01  0.00  0.96  0.00  0.00  0.00  0.87  0.00
  GQ14                    1.00   0.03  0.00  0.00  0.94  0.02  0.00  0.00  0.00  0.00
  GQ15                    1.00   0.03  0.00  0.00  0.00  0.96  0.00  0.00  0.02  0.00
  GQ16                    1.00   0.03  0.00  0.00  0.01  0.96  0.00  0.00  0.00  0.00
  GQ17                    1.00   0.03  0.00  0.00  0.41  0.56  0.00  0.00  0.87  0.00
  GQ18                    1.00   0.03  0.00  0.00  0.95  0.02  0.00  0.00  0.16  0.00
  GQ19                    1.00   0.03  0.00  0.00  0.31  0.66  0.00  0.00  0.87  0.00
  GQ20                    1.00   0.03  0.00  0.00  0.97  0.00  0.00  0.00  0.87  0.00
  GQ21                    1.00   0.03  0.00  0.00  0.69  0.28  0.00  0.00  0.87  0.00
  GQ22                    1.00   0.03  0.00  0.00  0.44  0.53  0.00  0.00  0.87  0.00
  GQ23                    1.00   0.03  0.00  0.00  0.46  0.51  0.00  0.00  0.15  0.00
  GQ24                    1.00   0.03  0.00  0.00  0.90  0.07  0.00  0.00  0.62  0.00
  GQ25                    1.00   0.03  0.00  0.00  0.00  0.96  0.00  0.00  0.01  0.00
  GQ26                    1.00   0.03  0.00  0.00  0.03  0.94  0.00  0.00  0.74  0.00
  GQ27                    1.00   0.03  0.00  0.00  0.85  0.12  0.00  0.00  0.60  0.00
  GQ28                    1.00   0.03  0.00  0.00  0.97  0.00  0.00  0.00  0.62  0.00
  GQ29                    1.00   0.03  0.00  0.00  0.97  0.00  0.00  0.00  0.21  0.00
  GQ30                    1.00   0.03  0.00  0.00  0.92  0.04  0.00  0.00  0.20  0.00
  GQ31                    1.00   0.03  0.00  0.00  0.97  0.00  0.00  0.00  0.62  0.00
  GQ32                    1.00   0.03  0.00  0.00  0.38  0.58  0.00  0.00  0.00  0.00
  GQ33                    1.00   0.03  0.00  0.00  0.80  0.17  0.00  0.00  0.59  0.00
  GQ34                    1.00   0.03  0.00  0.00  0.97  0.00  0.00  0.00  0.65  0.00
  GQ35                    1.00   0.03  0.00  0.00  0.53  0.43  0.00  0.00  0.25  0.00
  GQ36                    1.00   0.03  0.00  0.00  0.49  0.47  0.00  0.00  0.47  0.00
  GQ37                    1.00   0.03  0.00  0.00  0.97  0.00  0.00  0.00  0.61  0.00
  GQ38                    1.00   0.03  0.00  0.00  0.96  0.00  0.00  0.00  0.62  0.00
  GQ39                    1.00   0.03  0.00  0.00  0.92  0.05  0.00  0.00  0.60  0.00
  GQ40                    1.00   0.03  0.00  0.00  0.48  0.49  0.00  0.00  0.64  0.00
  GQ41                    1.00   0.03  0.00  0.00  0.97  0.00  0.00  0.00  0.58  0.00
  GQ42                    1.00   0.03  0.00  0.00  0.97  0.00  0.00  0.00  0.55  0.00
  GQ43                    1.00   0.03  0.00  0.00  0.52  0.44  0.00  0.00  0.59  0.00
  GQ44                    1.00   0.03  0.00  0.00  0.97  0.00  0.00  0.00  0.40  0.00
  GQ45                    1.00   0.03  0.00  0.00  0.20  0.77  0.00  0.00  0.68  0.00
  GQ46                    1.00   0.03  0.00  0.00  0.73  0.24  0.00  0.00  0.30  0.00
  GQ47                    1.00   0.03  0.00  0.00  0.97  0.00  0.00  0.00  0.87  0.00
  GQ48                    1.00   0.03  0.00  0.00  0.97  0.00  0.00  0.00  0.87  0.00
  GQ49                    1.00   0.03  0.00  0.00  0.43  0.53  0.00  0.00  0.87  0.00
  GQ50                    1.00   0.03  0.00  0.00  0.97  0.00  0.00  0.00  0.87  0.00
  GQ51                    1.00   0.03  0.00  0.00  0.43  0.53  0.00  0.00  0.29  0.00
  GQ52                    1.00   0.03  0.00  0.00  0.97  0.00  0.00  0.00  0.50  0.00
  GQ53                    1.00   0.03  0.00  0.00  0.97  0.00  0.00  0.00  0.56  0.00
  GQ54                    1.00   0.03  0.00  0.00  0.52  0.44  0.00  0.00  0.87  0.00
  GQ55                    1.00   0.03  0.00  0.00  0.55  0.42  0.00  0.00  0.87  0.00
  GQ56                    1.00   0.03  0.00  0.00  0.51  0.45  0.00  0.00  0.30  0.00
  GQ57                    1.00   0.03  0.00  0.00  0.97  0.00  0.00  0.00  0.87  0.00
  GQ58                    1.00   0.03  0.00  0.00  0.47  0.49  0.00  0.00  0.87  0.00
  GQ59                    1.00   0.03  0.00  0.00  0.97  0.00  0.00  0.00  0.56  0.00
  GQ60                    1.00   0.03  0.00  0.00  0.97  0.00  0.00  0.00  0.24  0.00
  GQ61                    1.00   0.03  0.00  0.00  0.97  0.00  0.00  0.00  0.87  0.00
  GQ62                    1.00   0.03  0.00  0.00  0.97  0.00  0.00  0.00  0.87  0.00
  GQ63                    1.00   0.03  0.00  0.00  0.95  0.01  0.00  0.00  0.87  0.00
  GQ64                    1.00   0.03  0.00  0.00  0.26  0.71  0.00  0.00  0.87  0.00
  GQ65                    1.00   0.03  0.00  0.00  0.97  0.00  0.00  0.00  0.87  0.00
  GQ66                    1.00   0.03  0.00  0.00  0.96  0.00  0.00  0.00  0.87  0.00
  GQ67                    1.00   0.03  0.00  0.00  0.97  0.00  0.00  0.00  0.20  0.00
  GQ68                    1.00   0.03  0.00  0.00  0.97  0.00  0.00  0.00  0.87  0.00
  GQ69                    1.00   0.03  0.00  0.00  0.43  0.54  0.00  0.00  0.87  0.00
  GQ70                    1.00   0.04  0.00  0.00  0.01  0.95  0.00  0.00  0.05  0.00
  GQ71                    1.00   0.03  0.00  0.00  0.00  0.96  0.00  0.00  0.11  0.00
  GQ72                    1.00   0.03  0.00  0.00  0.00  0.96  0.00  0.00  0.23  0.00
  GQ73                    1.00   0.04  0.00  0.00  0.01  0.96  0.00  0.00  0.07  0.00
  GQ74                    1.00   0.03  0.00  0.00  0.83  0.14  0.00  0.00  0.87  0.00
  GQ75                    1.00   0.03  0.00  0.00  0.96  0.00  0.00  0.00  0.87  0.00
  GQ76                    1.00   0.03  0.00  0.00  0.00  0.96  0.00  0.00  0.12  0.00
  GQ77                    1.00   0.03  0.97  0.00  0.00  0.00  0.00  0.00  0.00  0.00
  GQ78                    1.00   0.03  0.00  0.00  0.93  0.04  0.00  0.00  0.58  0.00
  GQ79                    1.00   0.03  0.00  0.00  0.97  0.00  0.00  0.00  0.19  0.00
  GQ80                    1.00   0.03  0.00  0.00  0.97  0.00  0.00  0.00  0.53  0.00
  GQ81                    1.00   0.03  0.00  0.00  0.97  0.00  0.00  0.00  0.00  0.00
  GQ82                    1.00   0.03  0.00  0.00  0.43  0.54  0.00  0.00  0.87  0.00
  GQ83                    1.00   0.03  0.00  0.00  0.00  0.97  0.00  0.00  0.87  0.00
  GQ84                    1.00   0.03  0.00  0.00  0.61  0.36  0.00  0.00  0.63  0.00
  GQ85                    1.00   0.03  0.00  0.00  0.97  0.00  0.00  0.00  0.54  0.00
  GQ86                    1.00   0.03  0.00  0.00  0.97  0.00  0.00  0.00  0.87  0.00
  GQ87                    1.00   0.03  0.00  0.00  0.97  0.00  0.00  0.00  0.87  0.00
  GQ88                    1.00   0.03  0.00  0.00  0.53  0.43  0.00  0.00  0.87  0.00
  GQ89                    1.00   0.03  0.00  0.00  0.97  0.00  0.00  0.00  0.87  0.00
  GQ90                    1.00   0.03  0.00  0.00  0.94  0.03  0.00  0.00  0.87  0.00
  GQ91                    1.00   0.03  0.00  0.00  0.97  0.00  0.00  0.00  0.65  0.00
  GQ92                    1.00   0.03  0.00  0.00  0.81  0.16  0.00  0.00  0.02  0.00
  GQ93                    1.00   0.03  0.00  0.00  0.97  0.00  0.00  0.00  0.62  0.00
  GQ94                    1.00   0.03  0.00  0.00  0.66  0.31  0.00  0.00  0.06  0.00
  GQ95                    1.00   0.03  0.00  0.00  0.97  0.00  0.00  0.00  0.87  0.00
  GQ96                    1.00   0.03  0.00  0.00  0.97  0.00  0.00  0.00  0.23  0.00
  GQ97                    1.00   0.03  0.00  0.00  0.01  0.96  0.00  0.00  0.45  0.00
  GQ98                    1.00   0.03  0.00  0.00  0.97  0.00  0.00  0.00  0.59  0.00
  GQ99                    1.00   0.03  0.00  0.00  0.97  0.00  0.00  0.00  0.87  0.00
  GQ100                   1.00   0.03  0.00  0.00  0.01  0.96  0.00  0.00  0.00  0.00
  GQ101                   1.00   0.03  0.00  0.00  0.85  0.11  0.00  0.00  0.87  0.00
  GQ102                   1.00   0.03  0.00  0.00  0.43  0.53  0.00  0.00  0.87  0.00
  GQ103                   1.00   0.03  0.00  0.00  0.97  0.00  0.00  0.00  0.62  0.00
  GQ104                   1.00   0.03  0.00  0.00  0.42  0.54  0.00  0.00  0.67  0.00
  GQ105                   1.00   0.03  0.00  0.00  0.97  0.00  0.00  0.00  0.18  0.00
  GQ106                   1.00   0.03  0.00  0.00  0.96  0.01  0.00  0.00  0.87  0.00
  GQ107                   1.00   0.03  0.00  0.00  0.82  0.14  0.00  0.00  0.61  0.00
  GQ108                   1.00   0.03  0.00  0.00  0.97  0.00  0.00  0.00  0.22  0.00
  GQ109                   1.00   0.03  0.00  0.00  0.83  0.13  0.00  0.00  0.63  0.00
  GQ110                   1.00   0.03  0.00  0.00  0.96  0.00  0.00  0.00  0.87  0.00
  GQ111                   1.00   0.03  0.00  0.00  0.96  0.01  0.00  0.00  0.65  0.00
  GQ112                   1.00   0.03  0.00  0.00  0.01  0.96  0.00  0.00  0.86  0.00
  GQ113                   1.00   0.03  0.00  0.00  0.00  0.96  0.00  0.00  0.82  0.00
  GQ114                   1.00   0.03  0.00  0.00  0.97  0.00  0.00  0.00  0.19  0.00
  GQ115                   1.00   0.03  0.00  0.00  0.95  0.02  0.00  0.00  0.87  0.00
  GQ116                   1.00   0.03  0.00  0.00  0.97  0.00  0.00  0.00  0.87  0.00
  GQ117                   1.00   0.03  0.00  0.00  0.00  0.96  0.00  0.00  0.00  0.00
  GQ118                   1.00   0.03  0.00  0.00  0.27  0.70  0.00  0.00  0.87  0.00
  GQ119                   1.00   0.03  0.00  0.00  0.91  0.06  0.00  0.00  0.58  0.00
  GQ120                   1.00   0.03  0.08  0.00  0.88  0.00  0.00  0.00  0.00  0.00
  GQ121                   1.00   0.03  0.00  0.00  0.97  0.00  0.00  0.00  0.20  0.00
  GQ122                   1.00   0.03  0.00  0.00  0.90  0.06  0.00  0.00  0.87  0.00
  GQ123                   1.00   0.03  0.00  0.00  0.45  0.52  0.00  0.00  0.87  0.00
  GQ124                   1.00   0.03  0.00  0.00  0.96  0.01  0.00  0.00  0.87  0.00
  GQ125                   1.00   0.03  0.00  0.00  0.96  0.01  0.00  0.00  0.65  0.00
  GQ126                   1.00   0.03  0.00  0.00  0.51  0.46  0.00  0.00  0.87  0.00
  GQ127                   1.00   0.03  0.00  0.00  0.97  0.00  0.00  0.00  0.29  0.00
  GQ128                   1.00   0.03  0.00  0.00  0.54  0.43  0.00  0.00  0.64  0.00
  GQ129                   1.00   0.03  0.00  0.00  0.97  0.00  0.00  0.00  0.46  0.00
  GQ130                   1.00   0.03  0.00  0.00  0.84  0.13  0.00  0.00  0.46  0.00
  GQ131                   1.00   0.03  0.00  0.00  0.93  0.04  0.00  0.00  0.60  0.00
  
  
  *************************
  Conduit Surcharge Summary
  *************************
  
  ----------------------------------------------------------------------------
                                                           Hours        Hours 
                         --------- Hours Full --------   Above Full   Capacity
  Conduit                Both Ends  Upstream  Dnstream   Normal Flow   Limited
  ----------------------------------------------------------------------------
  GQ1                         0.01      1.51      0.01      0.01         0.01
  GQ4                         2.76      2.76      5.35      0.01         0.01
  GQ5                         1.91      1.91      5.28      0.01         0.01
  GQ6                         0.01      0.01      1.91      0.01         0.01
  GQ7                         2.30      2.30      2.49      0.01         0.01
  GQ8                         0.01      0.01      2.30      0.01         0.01
  GQ9                         0.01      0.01      5.52      0.01         0.01
  GQ10                        2.94      2.94      5.57      0.09         0.01
  GQ12                        0.01      0.01      4.72      0.01         0.01
  GQ13                        0.01      0.01      2.49      0.01         0.01
  GQ16                        0.01      1.45      0.01      0.01         0.01
  GQ18                        0.01      0.01      4.01      4.39         0.01
  GQ20                        0.01      0.01      1.79      0.01         0.01
  GQ21                        0.01      0.01      1.79      0.01         0.01
  GQ22                        0.01      0.01      1.00      0.01         0.01
  GQ23                        1.00      1.00      1.48      0.01         0.01
  GQ24                        1.59      1.59      5.43      0.01         0.01
  GQ25                        0.01      1.68      0.01      1.70         0.01
  GQ26                        0.01      0.01      1.78      0.01         0.01
  GQ27                        1.78      1.78      5.20      0.01         0.01
  GQ28                        0.01      0.01      5.30      0.01         0.01
  GQ29                        5.09      5.09      5.30      0.01         0.01
  GQ30                        5.20      5.20      5.36      0.01         0.01
  GQ31                        1.68      1.68      5.60      0.01         0.01
  GQ32                        0.01      2.04      0.01      1.96         0.01
  GQ33                        2.04      2.04      5.60      0.01         0.01
  GQ34                        0.01      0.01      2.04      0.01         0.01
  GQ35                        1.98      2.01      2.04      0.12         0.01
  GQ36                        1.99      2.01      2.04      2.06         1.98
  GQ37                        0.01      0.01      5.50      0.01         0.01
  GQ38                        0.01      0.01      5.50      0.01         0.01
  GQ39                        1.87      1.87      4.72      0.01         0.01
  GQ40                        0.01      0.01      1.87      0.01         0.01
  GQ41                        1.45      1.45      5.29      0.01         0.01
  GQ42                        2.29      2.29      5.34      0.01         0.01
  GQ43                        2.12      2.12      2.29      0.05         0.01
  GQ44                        2.65      2.65      4.01      0.01         0.01
  GQ45                        0.01      0.01      2.25      0.01         0.01
  GQ46                        2.25      2.25      2.65      0.01         0.01
  GQ47                        0.01      0.01      5.38      0.01         0.01
  GQ48                        0.01      0.01      5.43      0.01         0.01
  GQ49                        0.01      0.01      5.43      0.01         0.01
  GQ50                        0.01      0.01      1.84      0.01         0.01
  GQ51                        1.51      1.84      1.51      1.93         1.51
  GQ52                        1.20      1.20      5.09      0.01         0.02
  GQ53                        2.18      2.18      5.35      0.01         0.01
  GQ54                        0.01      0.01      5.45      0.01         0.01
  GQ55                        0.01      0.01      5.45      0.01         0.01
  GQ56                        2.10      2.13      2.30      0.18         0.05
  GQ57                        0.01      0.01      2.13      0.01         0.01
  GQ58                        0.01      0.01      5.23      0.01         0.01
  GQ59                        2.29      2.29      5.23      0.01         0.01
  GQ60                        1.90      1.90      2.38      0.01         0.01
  GQ61                        0.01      0.01      4.88      0.01         0.01
  GQ62                        0.01      0.01      4.92      0.01         0.01
  GQ63                        0.01      0.01      4.96      0.01         0.01
  GQ66                        0.01      0.01      4.98      0.01         0.01
  GQ67                        4.90      4.90      4.93      0.01         0.01
  GQ68                        0.01      0.01      5.11      0.01         0.01
  GQ69                        0.01      0.01      5.36      0.01         0.01
  GQ75                        0.01      0.01      5.11      0.01         0.01
  GQ78                        2.10      2.10      5.47      0.01         0.01
  GQ79                        0.01      0.01      5.47      0.01         0.01
  GQ80                        2.10      2.10      4.47      0.01         0.01
  GQ81                        4.35      4.47      4.72      4.22         1.34
  GQ82                        0.01      0.01      4.72      0.01         0.01
  GQ83                        0.01      0.01      1.68      0.01         0.01
  GQ84                        1.83      1.83      2.27      0.06         0.01
  GQ85                        1.83      1.83      5.65      0.01         0.01
  GQ86                        0.01      0.01      5.40      0.01         0.01
  GQ87                        0.01      0.01      5.40      0.01         0.01
  GQ88                        0.01      0.01      5.41      0.01         0.01
  GQ89                        0.01      0.01      5.18      0.01         0.01
  GQ90                        0.01      0.01      5.07      0.01         0.01
  GQ91                        0.01      0.01      5.25      0.01         0.01
  GQ92                        1.74      1.74      1.83      1.76         1.69
  GQ93                        1.83      1.83      2.07      0.01         0.01
  GQ94                        2.07      2.07      2.12      2.09         2.03
  GQ95                        0.01      0.01      5.49      0.01         0.01
  GQ96                        1.73      1.76      1.74      1.87         1.68
  GQ98                        0.01      0.01      5.35      0.01         0.01
  GQ99                        0.01      0.01      4.94      0.01         0.01
  GQ100                       0.01      1.38      0.01      0.01         0.01
  GQ101                       0.01      0.01      5.26      0.01         0.01
  GQ102                       0.01      0.01      5.31      0.01         0.01
  GQ103                       1.42      1.42      5.38      0.01         0.01
  GQ104                       0.01      0.01      5.38      0.01         0.01
  GQ105                       5.27      5.27      5.31      4.36         0.01
  GQ106                       0.01      0.01      5.29      0.01         0.01
  GQ107                       1.87      1.87      5.29      0.01         0.01
  GQ108                       4.01      4.01      5.27      0.01         0.01
  GQ109                       0.01      0.01      1.87      0.01         0.01
  GQ110                       0.01      0.01      5.11      0.01         0.01
  GQ111                       0.01      0.01      5.26      0.01         0.01
  GQ114                       0.01      0.01      5.44      0.01         0.01
  GQ116                       0.01      0.01      5.40      0.01         0.01
  GQ119                       2.17      2.17      5.42      0.01         0.01
  GQ120                       0.01      0.01      5.37      0.01         0.01
  GQ121                       5.29      5.29      5.42      0.01         0.01
  GQ122                       0.01      0.01      5.29      0.01         0.01
  GQ123                       0.01      0.01      5.31      0.01         0.01
  GQ125                       0.01      0.01      5.25      0.01         0.01
  GQ126                       0.01      0.01      5.26      0.01         0.01
  GQ127                       2.12      2.12      2.17      0.11         0.07
  GQ128                       0.01      0.01      1.99      0.01         0.01
  GQ129                       2.49      2.49      5.43      0.01         0.01
  GQ130                       2.62      2.62      5.70      0.01         0.01
  GQ131                       1.84      1.84      5.62      0.01         0.01
  

  Analysis begun on:  Sat Mar 25 16:18:11 2023
  Analysis ended on:  Sat Mar 25 16:18:13 2023
  Total elapsed time: 00:00:02