
  OWA STORM WATER MANAGEMENT MODEL - VERSION v5.1.14 (OWA 2022-07-31)
  --------------------------------------------------------------

  INP file created by DSDAConvertToSwmmTools 
  version 0.0.1 EcoVista 
  Title/Notes: 
  
  
  *********************************************************
  NOTE: The summary statistics displayed in this report are
  based on results found at every computational time step,  
  not just on results from each reporting time step.
  *********************************************************
  
  ****************
  Analysis Options
  ****************
  Flow Units ............... CMS
  Process Models:
    Rainfall/Runoff ........ YES
    RDII ................... NO
    Snowmelt ............... NO
    Groundwater ............ NO
    Flow Routing ........... YES
    Ponding Allowed ........ NO
    Water Quality .......... NO
  Infiltration Method ...... GREEN_AMPT
  Flow Routing Method ...... DYNWAVE
  Surcharge Method ......... EXTRAN
  Starting Date ............ 07/15/2020 00:00:00
  Ending Date .............. 07/15/2020 11:00:00
  Antecedent Dry Days ...... 0.0
  Report Time Step ......... 00:30:00
  Wet Time Step ............ 00:05:00
  Dry Time Step ............ 01:00:00
  Routing Time Step ........ 30.00 sec
  Variable Time Step ....... YES
  Maximum Trials ........... 8
  Number of Threads ........ 1
  Head Tolerance ........... 0.001500 m
  
  
  **************************        Volume         Depth
  Runoff Quantity Continuity     hectare-m            mm
  **************************     ---------       -------
  Total Precipitation ......        43.162        10.800
  Evaporation Loss .........         3.751         0.939
  Infiltration Loss ........        11.535         2.886
  Surface Runoff ...........        21.039         5.264
  Final Storage ............         6.893         1.725
  Continuity Error (%) .....        -0.130
  
  
  **************************        Volume        Volume
  Flow Routing Continuity        hectare-m      10^6 ltr
  **************************     ---------     ---------
  Dry Weather Inflow .......         0.000         0.000
  Wet Weather Inflow .......        21.003       210.037
  Groundwater Inflow .......         0.000         0.000
  RDII Inflow ..............         0.000         0.000
  External Inflow ..........         0.000         0.000
  External Outflow .........         2.127        21.269
  Flooding Loss ............        17.495       174.948
  Evaporation Loss .........         0.000         0.000
  Exfiltration Loss ........         0.000         0.000
  Initial Stored Volume ....         0.000         0.000
  Final Stored Volume ......         1.220        12.203
  Continuity Error (%) .....         0.770
  
  
  *************************
  Highest Continuity Errors
  *************************
  Node jd51 (25.64%)
  Node jd59 (22.53%)
  Node jd64 (21.13%)
  Node jd31 (17.83%)
  Node jd55 (17.44%)
  
  
  ***************************
  Time-Step Critical Elements
  ***************************
  Link GQ73 (92.59%)
  
  
  ********************************
  Highest Flow Instability Indexes
  ********************************
  Link GQ67 (8)
  Link GQ121 (3)
  Link GQ46 (3)
  Link GQ29 (3)
  Link GQ114 (2)
  
  
  *************************
  Routing Time Step Summary
  *************************
  Minimum Time Step           :     4.42 sec
  Average Time Step           :    12.71 sec
  Maximum Time Step           :    30.00 sec
  Percent in Steady State     :    -0.00
  Average Iterations per Step :     3.28
  Percent Not Converging      :    11.39
  
  
  ***************************
  Subcatchment Runoff Summary
  ***************************
  
  ------------------------------------------------------------------------------------------------------------------------------
                            Total      Total      Total      Total     Imperv       Perv      Total       Total     Peak  Runoff
                           Precip      Runon       Evap      Infil     Runoff     Runoff     Runoff      Runoff   Runoff   Coeff
  Subcatchment                 mm         mm         mm         mm         mm         mm         mm    10^6 ltr      CMS
  ------------------------------------------------------------------------------------------------------------------------------
  1                         10.80       0.00       0.56       6.05       3.28       0.00       3.28        1.30     0.24   0.304
  2                         10.80       0.00       1.01       2.30       5.55       0.00       5.55        5.01     0.87   0.514
  3                         10.80       0.00       1.05       1.97       5.88       0.00       5.88        2.35     0.44   0.545
  4                         10.80       0.00       1.08       1.69       6.15       0.00       6.15        0.52     0.10   0.569
  5                         10.80       0.00       0.95       2.75       5.45       0.00       5.45        0.67     0.13   0.505
  6                         10.80       0.00       0.91       3.10       5.25       0.00       5.25        0.49     0.09   0.486
  7                         10.80       0.00       0.95       2.76       5.31       0.00       5.31        2.31     0.42   0.492
  8                         10.80       0.00       1.21       0.60       6.76       0.00       6.76        0.94     0.18   0.626
  9                         10.80       0.00       1.25       0.30       6.98       0.00       6.98        0.82     0.16   0.646
  10                        10.80       0.00       1.07       1.76       6.04       0.00       6.04        1.36     0.26   0.559
  11                        10.80       0.00       1.16       1.03       6.46       0.00       6.46        3.20     0.59   0.598
  12                        10.80       0.00       0.91       3.11       5.15       0.00       5.15        2.51     0.47   0.477
  13                        10.80       0.00       1.14       1.16       6.38       0.00       6.38        2.89     0.54   0.591
  14                        10.80       0.00       1.14       1.18       6.44       0.00       6.44        1.21     0.23   0.596
  15                        10.80       0.00       1.06       1.90       5.93       0.00       5.93        2.00     0.38   0.549
  16                        10.80       0.00       1.09       1.57       6.13       0.00       6.13        1.81     0.34   0.567
  17                        10.80       0.00       1.03       2.16       5.76       0.00       5.76        2.41     0.45   0.533
  18                        10.80       0.00       1.18       0.85       6.57       0.00       6.57        2.71     0.50   0.608
  19                        10.80       0.00       1.18       0.89       6.53       0.00       6.53        1.47     0.27   0.605
  20                        10.80       0.00       1.17       0.95       6.41       0.00       6.41        3.44     0.61   0.593
  21                        10.80       0.00       1.24       0.32       6.90       0.00       6.90        2.16     0.40   0.639
  22                        10.80       0.00       1.22       0.51       6.76       0.00       6.76        0.83     0.15   0.626
  23                        10.80       0.00       1.12       1.32       6.24       0.00       6.24        3.57     0.65   0.577
  24                        10.80       0.00       1.09       1.65       6.01       0.00       6.01        1.07     0.19   0.557
  25                        10.80       0.00       1.16       1.01       6.52       0.00       6.52        1.32     0.25   0.604
  26                        10.80       0.00       0.99       2.46       5.46       0.00       5.46        1.92     0.34   0.506
  27                        10.80       0.00       1.19       0.81       6.50       0.00       6.50        2.75     0.49   0.602
  28                        10.80       0.00       1.21       0.60       6.68       0.00       6.68        3.16     0.57   0.619
  29                        10.80       0.00       1.08       1.68       6.12       0.00       6.12        1.43     0.27   0.566
  30                        10.80       0.00       1.24       0.36       7.01       0.00       7.01        0.50     0.10   0.649
  31                        10.80       0.00       1.25       0.23       6.98       0.00       6.98        1.54     0.29   0.647
  32                        10.80       0.00       1.22       0.48       6.80       0.00       6.80        2.94     0.55   0.630
  33                        10.80       0.00       1.24       0.35       6.87       0.00       6.87        2.42     0.45   0.636
  34                        10.80       0.00       1.15       1.09       6.43       0.00       6.43        1.88     0.35   0.595
  35                        10.80       0.00       1.18       0.81       6.59       0.00       6.59        2.73     0.51   0.610
  36                        10.80       0.00       0.98       2.57       5.53       0.00       5.53        2.18     0.41   0.512
  37                        10.80       0.00       1.21       0.58       6.74       0.00       6.74        1.50     0.28   0.624
  38                        10.80       0.00       1.14       1.22       6.36       0.00       6.36        2.43     0.45   0.589
  39                        10.80       0.00       1.03       2.15       5.79       0.00       5.79        2.44     0.46   0.536
  40                        10.80       0.00       1.14       1.17       6.39       0.00       6.39        1.46     0.27   0.592
  41                        10.80       0.00       1.17       0.95       6.57       0.00       6.57        1.30     0.25   0.608
  42                        10.80       0.00       1.17       0.96       6.42       0.00       6.42        1.59     0.29   0.595
  43                        10.80       0.00       0.98       2.53       5.49       0.00       5.49        4.34     0.77   0.508
  44                        10.80       0.00       1.05       1.97       5.81       0.00       5.81        2.81     0.51   0.538
  45                        10.80       0.00       0.98       2.50       5.52       0.00       5.52        4.00     0.73   0.511
  46                        10.80       0.00       0.95       2.79       5.43       0.00       5.43        2.71     0.51   0.502
  47                        10.80       0.00       1.00       2.39       5.59       0.00       5.59        6.52     1.19   0.518
  48                        10.80       0.00       1.19       0.75       6.52       0.00       6.52        3.78     0.67   0.604
  49                        10.80       0.00       1.09       1.60       5.99       0.00       5.99        4.06     0.71   0.555
  50                        10.80       0.00       1.21       0.61       6.53       0.00       6.53        2.57     0.43   0.605
  51                        10.80       0.00       1.16       1.05       6.28       0.00       6.28        1.18     0.20   0.582
  52                        10.80       0.00       0.56       6.06       3.30       0.00       3.30        3.39     0.63   0.305
  53                        10.80       0.00       0.81       3.93       4.70       0.00       4.70        5.01     0.93   0.435
  54                        10.80       0.00       1.01       2.33       5.66       0.00       5.66        1.38     0.26   0.524
  55                        10.80       0.00       0.58       5.95       3.37       0.00       3.37        2.66     0.49   0.312
  56                        10.80       0.00       0.22       8.97       1.35       0.00       1.35        1.10     0.19   0.125
  57                        10.80       0.00       1.14       1.20       6.25       0.00       6.25        5.19     0.91   0.579
  58                        10.80       0.00       1.05       1.91       5.92       0.00       5.92        0.97     0.18   0.548
  59                        10.80       0.00       1.03       2.12       5.86       0.00       5.86        0.75     0.14   0.543
  60                        10.80       0.00       0.39       7.55       2.31       0.00       2.31        0.66     0.12   0.214
  61                        10.80       0.00       0.60       5.74       3.42       0.00       3.42        1.29     0.24   0.317
  62                        10.80       0.00       0.84       3.76       4.70       0.00       4.70        5.51     0.99   0.436
  63                        10.80       0.00       1.14       1.19       6.20       0.00       6.20       11.99     2.04   0.574
  64                        10.80       0.00       0.85       3.63       4.90       0.00       4.90        1.05     0.19   0.453
  65                        10.80       0.00       1.16       1.05       6.30       0.00       6.30        4.24     0.73   0.583
  66                        10.80       0.00       0.91       3.12       5.08       0.00       5.08        1.29     0.23   0.470
  67                        10.80       0.00       0.85       3.63       4.94       0.00       4.94        1.60     0.29   0.457
  68                        10.80       0.00       1.02       2.19       5.76       0.00       5.76        0.64     0.12   0.533
  69                        10.80       0.00       0.60       5.75       3.58       0.00       3.58        1.15     0.21   0.332
  70                        10.80       0.00       0.84       3.69       4.76       0.00       4.76        3.92     0.72   0.441
  71                        10.80       0.00       1.04       2.02       5.87       0.00       5.87        0.72     0.14   0.543
  72                        10.80       0.00       1.10       1.54       6.18       0.00       6.18        0.77     0.15   0.572
  73                        10.80       0.00       0.99       2.41       5.67       0.00       5.67        0.94     0.18   0.525
  74                        10.80       0.00       0.95       2.80       5.41       0.00       5.41        1.16     0.22   0.501
  75                        10.80       0.00       1.05       1.91       5.95       0.00       5.95        0.86     0.16   0.551
  76                        10.80       0.00       1.11       1.45       6.26       0.00       6.26        0.61     0.12   0.580
  77                        10.80       0.00       1.18       0.83       6.61       0.00       6.61        0.72     0.14   0.612
  78                        10.80       0.00       1.14       1.18       6.38       0.00       6.38        0.70     0.13   0.591
  79                        10.80       0.00       0.50       6.58       2.97       0.00       2.97        3.15     0.58   0.275
  80                        10.80       0.00       0.94       2.85       5.26       0.00       5.26        3.29     0.60   0.487
  81                        10.80       0.00       0.96       2.72       5.34       0.00       5.34        2.33     0.42   0.495
  82                        10.80       0.00       0.92       3.07       5.13       0.00       5.13        4.71     0.85   0.475
  83                        10.80       0.00       1.15       1.13       6.45       0.00       6.45        0.79     0.15   0.597
  84                        10.80       0.00       1.08       1.68       6.06       0.00       6.06        0.72     0.14   0.561
  85                        10.80       0.00       1.27       0.08       7.13       0.00       7.13        0.66     0.13   0.660
  86                        10.80       0.00       1.17       0.91       6.56       0.00       6.56        0.97     0.18   0.608
  87                        10.80       0.00       1.25       0.23       6.94       0.00       6.94        0.91     0.17   0.643
  88                        10.80       0.00       1.12       1.35       6.32       0.00       6.32        0.61     0.11   0.585
  89                        10.80       0.00       1.18       0.87       6.61       0.00       6.61        1.27     0.24   0.612
  90                        10.80       0.00       1.28       0.00       7.22       0.00       7.22        0.08     0.02   0.668
  91                        10.80       0.00       1.07       1.81       5.87       0.00       5.87        1.28     0.23   0.543
  92                        10.80       0.00       1.18       0.84       6.61       0.00       6.61        0.83     0.16   0.612
  93                        10.80       0.00       0.96       2.68       5.42       0.00       5.42        2.78     0.51   0.502
  94                        10.80       0.00       0.87       3.50       5.05       0.00       5.05        0.35     0.07   0.468
  95                        10.80       0.00       1.28       0.01       7.16       0.00       7.16        0.16     0.03   0.663
  96                        10.80       0.00       1.03       2.09       5.84       0.00       5.84        0.71     0.14   0.541
  97                        10.80       0.00       1.25       0.23       7.01       0.00       7.01        0.70     0.13   0.649
  98                        10.80       0.00       1.04       2.04       5.88       0.00       5.88        0.73     0.14   0.545
  99                        10.80       0.00       0.51       6.46       3.08       0.00       3.08        1.14     0.21   0.285
  100                       10.80       0.00       0.57       5.98       3.41       0.00       3.41        0.88     0.16   0.316
  101                       10.80       0.00       0.59       5.86       3.47       0.00       3.47        1.70     0.31   0.322
  102                       10.80       0.00       0.96       2.75       5.40       0.00       5.40        1.32     0.25   0.500
  103                       10.80       0.00       0.32       8.11       1.95       0.00       1.95        0.71     0.13   0.180
  104                       10.80       0.00       0.22       8.98       1.31       0.00       1.31        1.27     0.23   0.121
  105                       10.80       0.00       1.05       1.92       5.97       0.00       5.97        0.78     0.15   0.552
  106                       10.80       0.00       0.57       5.99       3.37       0.00       3.37        0.82     0.15   0.312
  
  
  ******************
  Node Depth Summary
  ******************
  
  ---------------------------------------------------------------------------------
                                 Average  Maximum  Maximum  Time of Max    Reported
                                   Depth    Depth      HGL   Occurrence   Max Depth
  Node                 Type       Meters   Meters   Meters  days hr:min      Meters
  ---------------------------------------------------------------------------------
  jd1                  JUNCTION     0.05     0.13   273.13     0  04:00        0.13
  jd2                  JUNCTION     0.13     0.34   267.34     0  04:00        0.34
  jd3                  JUNCTION     2.51     3.00   266.00     0  03:19        3.00
  jd4                  JUNCTION     0.29     3.00   270.00     0  03:54        3.00
  jd5                  JUNCTION     0.04     0.09   274.09     0  04:00        0.09
  jd6                  JUNCTION     0.05     0.12   275.12     0  04:00        0.12
  jd7                  JUNCTION     0.17     0.41   264.51     0  04:00        0.41
  jd8                  JUNCTION     0.80     3.00   267.00     0  03:25        3.00
  jd9                  JUNCTION     0.46     3.00   268.00     0  03:34        2.94
  jd10                 JUNCTION     2.53     3.00   273.00     0  03:13        3.00
  jd11                 JUNCTION     0.04     0.10   282.10     0  04:00        0.10
  jd12                 JUNCTION     2.56     3.00   272.00     0  03:07        3.00
  jd13                 JUNCTION     0.05     0.13   289.13     0  04:00        0.13
  jd14                 JUNCTION     0.10     0.27   280.27     0  04:00        0.27
  jd15                 JUNCTION     0.11     0.28   278.28     0  04:01        0.28
  jd16                 JUNCTION     0.12     0.31   274.31     0  04:00        0.31
  jd17                 JUNCTION     0.85     3.00   278.80     0  03:30        3.00
  jd18                 JUNCTION     0.10     0.29   279.29     0  04:00        0.29
  jd19                 JUNCTION     0.29     3.00   270.00     0  03:49        2.11
  jd20                 JUNCTION     0.11     0.22   273.22     0  04:00        0.22
  jd21                 JUNCTION     2.50     3.00   273.00     0  03:16        3.00
  jd22                 JUNCTION     0.94     2.31   274.31     0  03:26        2.12
  jd23                 JUNCTION     0.09     0.24   278.24     0  04:00        0.24
  jd24                 JUNCTION     0.06     0.15   285.15     0  04:00        0.15
  jd25                 JUNCTION     0.10     0.25   279.25     0  04:00        0.25
  jd26                 JUNCTION     0.10     0.28   285.28     0  04:00        0.28
  jd27                 JUNCTION     0.09     0.22   291.22     0  04:00        0.22
  jd28                 JUNCTION     2.61     3.00   290.00     0  02:55        3.00
  jd29                 JUNCTION     0.04     0.11   299.11     0  04:00        0.11
  jd30                 JUNCTION     0.05     0.13   290.13     0  04:00        0.13
  jd31                 JUNCTION     0.82     3.00   275.00     0  03:31        1.06
  jd32                 JUNCTION     2.59     3.00   275.00     0  03:01        3.00
  jd33                 JUNCTION     0.08     0.20   289.20     0  04:00        0.20
  jd34                 JUNCTION     0.09     0.23   294.23     0  04:00        0.23
  jd35                 JUNCTION     2.66     3.00   292.00     0  02:39        3.00
  jd36                 JUNCTION     0.12     0.33   299.33     0  04:00        0.33
  jd37                 JUNCTION     0.12     0.32   303.32     0  04:00        0.32
  jd38                 JUNCTION     0.15     0.38   297.38     0  04:00        0.38
  jd39                 JUNCTION     2.52     3.00   297.00     0  03:18        3.00
  jd40                 JUNCTION     0.19     0.59   299.59     0  04:03        0.57
  jd41                 JUNCTION     2.41     3.00   296.00     0  03:40        3.00
  jd42                 JUNCTION     0.08     0.20   305.20     0  04:00        0.20
  jd43                 JUNCTION     0.20     0.57   297.57     0  04:00        0.57
  jd44                 JUNCTION     0.21     0.62   283.62     0  04:02        0.61
  jd45                 JUNCTION     2.56     3.00   282.00     0  03:10        3.00
  jd46                 JUNCTION     0.11     0.27   275.27     0  04:02        0.27
  jd47                 JUNCTION     0.07     0.17   315.17     0  04:00        0.17
  jd48                 JUNCTION     0.05     0.12   325.12     0  04:00        0.12
  jd49                 JUNCTION     0.10     0.26   289.26     0  04:00        0.26
  jd50                 JUNCTION     2.63     3.00   278.00     0  02:50        3.00
  jd51                 JUNCTION     2.37     3.00   313.00     0  03:44        3.00
  jd52                 JUNCTION     0.15     0.42   323.42     0  04:01        0.42
  jd53                 JUNCTION     0.16     0.43   322.43     0  04:01        0.43
  jd54                 JUNCTION     0.12     0.31   326.31     0  04:00        0.31
  jd55                 JUNCTION     1.00     1.54   323.54     0  04:00        1.54
  jd56                 JUNCTION     0.07     0.20   327.20     0  04:00        0.20
  jd59                 JUNCTION     2.33     3.00   320.80     0  03:48        3.00
  jd60                 JUNCTION     2.56     3.00   319.00     0  03:06        3.00
  jd61                 JUNCTION     0.06     0.15   329.15     0  04:00        0.15
  jd62                 JUNCTION     0.03     0.07   335.07     0  04:00        0.07
  jd63                 JUNCTION     0.03     0.08   324.08     0  04:00        0.08
  jd64                 JUNCTION     2.16     3.00   321.00     0  03:48        2.81
  jd65                 JUNCTION     0.53     3.00   307.00     0  03:35        3.00
  jd66                 JUNCTION     2.53     3.00   304.00     0  03:15        3.00
  jd69                 JUNCTION     0.10     0.25   333.25     0  04:00        0.25
  jd79                 JUNCTION     2.15     3.00   274.00     0  02:59        3.00
  jd80                 JUNCTION     0.83     3.00   279.00     0  03:23        3.00
  jd81                 JUNCTION     0.06     0.16   288.16     0  04:00        0.16
  jd83                 JUNCTION     2.67     3.00   323.00     0  02:37        3.00
  jd84                 JUNCTION     0.09     0.25   323.25     0  04:00        0.25
  jd85                 JUNCTION     2.53     3.00   324.00     0  03:13        3.00
  jd87                 JUNCTION     2.54     3.00   322.00     0  03:10        3.00
  jd89                 JUNCTION     0.07     0.17   324.17     0  04:00        0.17
  jd90                 JUNCTION     0.06     0.15   328.15     0  04:00        0.15
  jd92                 JUNCTION     0.06     0.15   326.15     0  04:00        0.15
  jd93                 JUNCTION     0.17     0.45   324.45     0  04:00        0.45
  jd94                 JUNCTION     0.10     0.27   326.47     0  04:01        0.27
  jd95                 JUNCTION     0.13     0.35   327.35     0  04:00        0.35
  jd96                 JUNCTION     2.57     3.00   308.00     0  03:07        3.00
  jd97                 JUNCTION     0.13     0.36   327.56     0  04:00        0.36
  jd98                 JUNCTION     0.08     0.20   329.20     0  04:00        0.20
  jd99                 JUNCTION     2.52     3.00   327.00     0  03:16        3.00
  jd101                JUNCTION     0.05     0.12   321.12     0  04:00        0.12
  jd102                JUNCTION     0.09     0.24   324.24     0  04:00        0.24
  jd103                JUNCTION     0.05     0.12   318.12     0  04:00        0.12
  jd106                JUNCTION     2.44     3.00   287.00     0  03:31        3.00
  jd107                JUNCTION     0.09     0.23   332.23     0  04:00        0.23
  jd108                JUNCTION     0.96     1.22   327.22     0  04:00        1.22
  jd109                JUNCTION     0.07     0.18   343.18     0  04:00        0.18
  jd110                JUNCTION     2.54     3.00   327.00     0  03:14        3.00
  jd111                JUNCTION     0.03     0.08   344.08     0  04:00        0.08
  jd112                JUNCTION     0.04     0.10   334.10     0  04:00        0.10
  jd113                JUNCTION     0.04     0.11   348.11     0  04:00        0.11
  jd114                JUNCTION     2.56     3.00   317.00     0  03:09        3.00
  jd117                JUNCTION     0.86     3.00   319.00     0  03:18        1.21
  jd118                JUNCTION     0.04     0.10   330.10     0  04:00        0.10
  jd120                JUNCTION     0.07     0.17   327.17     0  04:00        0.17
  jd121                JUNCTION     0.07     0.17   320.17     0  04:00        0.17
  jd122                JUNCTION     2.51     3.00   276.00     0  03:17        3.00
  jd123                JUNCTION     2.48     3.00   276.20     0  03:19        3.00
  jd124                JUNCTION     2.72     3.00   271.00     0  02:23        3.00
  jd125                JUNCTION     0.28     3.00   278.00     0  03:50        2.13
  jd126                JUNCTION     2.67     3.00   275.00     0  02:38        3.00
  jd135                JUNCTION     0.06     0.15   289.15     0  04:00        0.15
  jd136                JUNCTION     0.11     0.28   341.28     0  04:00        0.28
  psk1                 OUTFALL      0.04     0.10   279.10     0  04:00        0.10
  psk2                 OUTFALL      0.05     0.13   270.13     0  04:00        0.13
  psk3                 OUTFALL      0.12     0.31   271.31     0  04:00        0.31
  psk4                 OUTFALL      0.00     0.00   280.00     0  00:00        0.00
  psk5                 OUTFALL      0.05     0.13   263.13     0  04:00        0.13
  psk6                 OUTFALL      0.04     0.09   259.09     0  04:00        0.09
  psk7                 OUTFALL      0.17     0.41   262.41     0  04:00        0.41
  psk8                 OUTFALL      0.00     0.00   317.00     0  00:00        0.00
  
  
  *******************
  Node Inflow Summary
  *******************
  
  -------------------------------------------------------------------------------------------------
                                  Maximum  Maximum                  Lateral       Total        Flow
                                  Lateral    Total  Time of Max      Inflow      Inflow     Balance
                                   Inflow   Inflow   Occurrence      Volume      Volume       Error
  Node                 Type           CMS      CMS  days hr:min    10^6 ltr    10^6 ltr     Percent
  -------------------------------------------------------------------------------------------------
  jd1                  JUNCTION     0.237    0.377     0  04:00         1.3        2.11       0.340
  jd2                  JUNCTION     0.337    0.468     0  04:00        1.91        2.65       0.674
  jd3                  JUNCTION     0.416    1.382     0  04:00        2.31        7.98       5.241
  jd4                  JUNCTION     0.487    0.550     0  04:00        2.74        3.08       0.782
  jd5                  JUNCTION     0.156    0.269     0  04:00       0.815        1.45       0.098
  jd6                  JUNCTION     0.177    0.177     0  04:00        0.94        0.94       0.178
  jd7                  JUNCTION     0.093    1.447     0  04:00       0.487        8.99       0.351
  jd8                  JUNCTION     0.128    1.043     0  04:00       0.673        6.84       1.997
  jd9                  JUNCTION     0.099    0.915     0  04:00       0.515         6.2       0.446
  jd10                 JUNCTION     0.257    0.326     0  04:00        1.36        1.73       6.142
  jd11                 JUNCTION     0.377    0.377     0  04:00           2           2       0.256
  jd12                 JUNCTION     0.278    0.603     0  04:00        1.49        3.23       4.398
  jd13                 JUNCTION     0.505    0.505     0  04:00        2.71        2.71       0.181
  jd14                 JUNCTION     0.574    0.647     0  04:00        3.15        3.54       0.459
  jd15                 JUNCTION     0.250    0.525     0  04:00        1.32        2.84       1.328
  jd16                 JUNCTION     0.271    0.991     0  04:00        1.43        5.35       0.485
  jd17                 JUNCTION     0.547    1.347     0  04:00        2.93         9.5       4.844
  jd18                 JUNCTION     0.444    0.641     0  04:00        2.35         3.4       0.648
  jd19                 JUNCTION     0.414    0.816     0  04:00        2.19         5.7       0.359
  jd20                 JUNCTION     0.337    0.558     0  04:00        1.81        4.88       0.567
  jd21                 JUNCTION     0.154    1.291     0  04:00        0.83         7.5       4.647
  jd22                 JUNCTION     0.272    0.614     0  04:00        1.47        3.34       2.562
  jd23                 JUNCTION     0.273    0.753     0  04:00        1.46        4.03       0.360
  jd24                 JUNCTION     0.452    0.452     0  04:00        2.41        2.41       0.249
  jd25                 JUNCTION     0.351    0.508     0  04:00        1.88        2.72       0.499
  jd26                 JUNCTION     0.510    0.837     0  04:00        2.73        4.55       0.443
  jd27                 JUNCTION     0.509    0.828     0  04:00        2.81        4.66       0.456
  jd28                 JUNCTION     0.667    0.939     0  04:00        3.78        5.33       2.548
  jd29                 JUNCTION     0.290    0.290     0  04:00        1.54        1.54       0.099
  jd30                 JUNCTION     0.285    0.776     0  04:00        1.58        4.35       0.277
  jd31                 JUNCTION     0.193    0.787     0  03:31        1.06        2.54      21.693
  jd32                 JUNCTION     0.404    1.909     0  04:00        2.16        9.43       2.681
  jd33                 JUNCTION     0.405    0.676     0  04:00        2.17        3.62       0.230
  jd34                 JUNCTION     0.508    0.508     0  04:00        2.71        2.71       0.195
  jd35                 JUNCTION     0.459    1.516     0  04:00        2.44        8.48       1.556
  jd36                 JUNCTION     0.714    1.171     0  04:00        4.05        6.68       0.564
  jd37                 JUNCTION     0.773    0.773     0  04:00        4.33        4.33       0.298
  jd38                 JUNCTION     0.725    1.182     0  04:00        3.99        6.59       0.721
  jd39                 JUNCTION     0.513    2.148     0  04:00        2.77        12.2       4.307
  jd40                 JUNCTION     0.845    2.074     0  04:00         4.7        10.9       0.832
  jd41                 JUNCTION     0.600    2.462     0  04:00        3.29        13.7      18.264
  jd42                 JUNCTION     0.731    0.812     0  04:00        4.23        4.67       0.581
  jd43                 JUNCTION     0.927    1.607     0  04:00           5         8.6       0.722
  jd44                 JUNCTION     1.185    2.999     0  04:00        6.51        16.4       0.758
  jd45                 JUNCTION     0.431    1.770     0  04:00        2.56        10.3       3.207
  jd46                 JUNCTION     0.200    0.200     0  04:00        1.17        1.17       1.328
  jd47                 JUNCTION     0.724    0.724     0  04:00        3.91        3.91      -0.083
  jd48                 JUNCTION     0.209    0.209     0  04:00        1.14        1.14       0.119
  jd49                 JUNCTION     0.914    0.914     0  04:00        5.19        5.19       0.432
  jd50                 JUNCTION     0.991    2.740     0  04:00         5.5        19.9       2.197
  jd51                 JUNCTION     0.220    0.990     0  04:00        1.16        5.33      34.472
  jd52                 JUNCTION     0.419    1.693     0  04:00        2.32        8.58       0.709
  jd53                 JUNCTION     0.225    1.307     0  04:00        1.28        6.95       0.414
  jd54                 JUNCTION     0.133    0.658     0  04:00       0.695        3.52       0.461
  jd55                 JUNCTION     0.242    0.781     0  04:00        1.27         4.2      21.123
  jd56                 JUNCTION     0.149    0.435     0  04:00       0.779        2.27       0.346
  jd59                 JUNCTION     0.146    0.716     0  04:00       0.769        3.42      29.078
  jd60                 JUNCTION     0.259    0.553     0  04:00        1.38        2.99       4.420
  jd61                 JUNCTION     0.291    0.328     0  04:00        1.59         1.8       0.278
  jd62                 JUNCTION     0.121    0.121     0  04:00       0.662       0.662       0.039
  jd63                 JUNCTION     0.163    0.163     0  04:00       0.855       0.855       0.129
  jd64                 JUNCTION     0.135    0.408     0  03:48       0.714        1.77      26.789
  jd65                 JUNCTION     2.038    2.038     0  04:00          12          12       0.335
  jd66                 JUNCTION     0.307    0.898     0  04:00         1.7        4.92       6.772
  jd69                 JUNCTION     0.577    0.593     0  04:00        3.14        3.23       0.319
  jd79                 JUNCTION     0.538    0.979     0  04:00        2.88        5.03       3.575
  jd80                 JUNCTION     0.594    0.778     0  04:00         3.2        4.43       1.561
  jd81                 JUNCTION     0.445    0.445     0  04:00        2.42        2.42       0.077
  jd83                 JUNCTION     0.494    0.649     0  04:00        2.65        3.63       2.369
  jd84                 JUNCTION     0.629    0.629     0  04:00        3.38        3.38       0.219
  jd85                 JUNCTION     0.143    0.234     0  04:00       0.745        1.24       7.206
  jd87                 JUNCTION     0.116    0.276     0  04:00       0.606        1.49       5.174
  jd89                 JUNCTION     0.131    0.131     0  04:00         0.7         0.7       0.380
  jd90                 JUNCTION     0.136    0.136     0  04:00       0.719       0.719       0.097
  jd92                 JUNCTION     0.115    0.115     0  04:00       0.604       0.604       0.162
  jd93                 JUNCTION     0.232    0.514     0  04:00        1.29         2.8       0.502
  jd94                 JUNCTION     0.016    0.285     0  04:00      0.0827        1.52       0.648
  jd95                 JUNCTION     0.030    0.272     0  04:00       0.156        1.44       0.503
  jd96                 JUNCTION     0.230    0.304     0  04:00        1.27        1.66       6.063
  jd97                 JUNCTION     0.242    0.242     0  04:00        1.29        1.29       0.109
  jd98                 JUNCTION     0.136    0.136     0  04:00       0.712       0.712       0.189
  jd99                 JUNCTION     0.066    0.230     0  04:00       0.354        1.23       4.744
  jd101                JUNCTION     0.179    0.348     0  04:00        0.94        1.85      -0.028
  jd102                JUNCTION     0.171    0.171     0  04:00       0.912       0.912       0.360
  jd103                JUNCTION     0.121    0.121     0  04:00       0.639       0.639       0.083
  jd106                JUNCTION     0.097    0.531     0  04:00       0.502        2.84      15.536
  jd107                JUNCTION     0.138    0.450     0  04:00       0.724        2.39       0.437
  jd108                JUNCTION     0.151    0.151     0  04:00        0.82       0.841       8.366
  jd109                JUNCTION     0.247    0.247     0  04:00        1.31        1.31       0.093
  jd110                JUNCTION     0.194    0.289     0  04:00         1.1        1.61      10.185
  jd111                JUNCTION     0.160    0.160     0  04:00       0.874       0.874       0.095
  jd112                JUNCTION     0.183    0.517     0  04:00       0.965        2.81       0.133
  jd113                JUNCTION     0.128    0.128     0  04:00       0.706       0.706      -0.035
  jd114                JUNCTION     0.150    1.892     0  04:00       0.787        10.1       3.220
  jd117                JUNCTION     0.135    0.454     0  04:00       0.723        2.51       6.535
  jd118                JUNCTION     0.128    0.128     0  04:00       0.662       0.662      -0.005
  jd120                JUNCTION     0.156    0.156     0  04:00       0.825       0.825       0.161
  jd121                JUNCTION     0.191    0.191     0  04:00        1.05        1.05       0.231
  jd122                JUNCTION     0.454    1.851     0  04:00        2.42        16.5       3.475
  jd123                JUNCTION     0.471    1.920     0  04:00        2.51        14.3       5.110
  jd124                JUNCTION     0.651    1.654     0  04:00        3.56        10.4       0.555
  jd125                JUNCTION     0.608    2.105     0  04:00        3.43          12       0.273
  jd126                JUNCTION     0.872    1.234     0  04:00        5.01        7.01       1.457
  jd135                JUNCTION     0.247    0.247     0  04:00        1.29        1.29       0.113
  jd136                JUNCTION     0.208    0.335     0  04:00        1.14        1.85       0.363
  psk1                 OUTFALL      0.000    0.246     0  04:00           0        1.32       0.000
  psk2                 OUTFALL      0.000    0.568     0  04:00           0        3.19       0.000
  psk3                 OUTFALL      0.000    0.978     0  04:00           0        5.32       0.000
  psk4                 OUTFALL      0.000    0.000     0  00:00           0           0       0.000 ltr
  psk5                 OUTFALL      0.000    0.242     0  04:00           0        1.37       0.000
  psk6                 OUTFALL      0.000    0.205     0  04:00           0        1.11       0.000
  psk7                 OUTFALL      0.000    1.446     0  04:00           0        8.96       0.000
  psk8                 OUTFALL      0.000    0.000     0  00:00           0           0       0.000 ltr
  
  
  **********************
  Node Surcharge Summary
  **********************
  
  Surcharging occurs when water rises above the top of the highest conduit.
  ---------------------------------------------------------------------
                                               Max. Height   Min. Depth
                                   Hours       Above Crown    Below Rim
  Node                 Type      Surcharged         Meters       Meters
  ---------------------------------------------------------------------
  jd3                  JUNCTION        7.69          2.200        0.000
  jd4                  JUNCTION        0.29          2.200        0.000
  jd8                  JUNCTION        1.27          2.200        0.000
  jd9                  JUNCTION        0.70          2.200        0.000
  jd10                 JUNCTION        7.78          2.400        0.000
  jd12                 JUNCTION        7.88          2.400        0.000
  jd17                 JUNCTION        1.32          2.200        0.000
  jd19                 JUNCTION        0.25          2.200        0.000
  jd21                 JUNCTION        7.72          2.200        0.000
  jd22                 JUNCTION        7.57          1.710        0.690
  jd28                 JUNCTION        8.09          2.400        0.000
  jd31                 JUNCTION        7.47          2.200        0.000
  jd32                 JUNCTION        7.98          2.200        0.000
  jd35                 JUNCTION        8.35          2.400        0.000
  jd39                 JUNCTION        7.70          2.000        0.000
  jd41                 JUNCTION        7.32          1.000        0.000
  jd45                 JUNCTION        7.84          2.000        0.000
  jd50                 JUNCTION        8.16          2.200        0.000
  jd51                 JUNCTION        7.27          1.350        0.000
  jd55                 JUNCTION        0.18          0.043        1.457
  jd59                 JUNCTION        7.20          1.500        0.000
  jd60                 JUNCTION        7.90          2.400        0.000
  jd64                 JUNCTION        7.21          1.800        0.000
  jd65                 JUNCTION        0.72          2.400        0.000
  jd66                 JUNCTION        7.74          2.200        0.000
  jd79                 JUNCTION        8.01          2.400        0.000
  jd80                 JUNCTION        1.70          2.400        0.000
  jd83                 JUNCTION        8.38          2.400        0.000
  jd85                 JUNCTION        7.78          2.400        0.000
  jd87                 JUNCTION        7.83          2.400        0.000
  jd96                 JUNCTION        7.88          2.200        0.000
  jd99                 JUNCTION        7.73          2.400        0.000
  jd106                JUNCTION        7.48          2.000        0.000
  jd108                JUNCTION        7.85          0.220        1.780
  jd110                JUNCTION        7.77          2.000        0.000
  jd114                JUNCTION        7.86          2.000        0.000
  jd117                JUNCTION        7.70          2.200        0.000
  jd122                JUNCTION        7.72          2.200        0.000
  jd123                JUNCTION        7.67          2.200        0.000
  jd124                JUNCTION        8.62          2.400        0.000
  jd125                JUNCTION        0.37          2.200        0.000
  jd126                JUNCTION        8.37          2.400        0.000
  
  
  *********************
  Node Flooding Summary
  *********************
  
  Flooding refers to all water that overflows a node, whether it ponds or not.
  --------------------------------------------------------------------------
                                                             Total   Maximum
                                 Maximum   Time of Max       Flood    Ponded
                        Hours       Rate    Occurrence      Volume     Depth
  Node                 Flooded       CMS   days hr:min    10^6 ltr    Meters
  --------------------------------------------------------------------------
  jd3                     7.69     1.381      0  04:00       7.584     0.000
  jd4                     0.13     0.173      0  03:54       0.017     0.000
  jd8                     0.19     0.117      0  03:25       0.014     0.000
  jd9                     0.01     0.167      0  03:34       0.003     0.000
  jd10                    7.78     0.326      0  04:00       1.631     0.000
  jd12                    7.88     0.603      0  04:00       3.091     0.000
  jd17                    0.68     0.976      0  03:30       0.825     0.000
  jd19                    0.01     0.095      0  03:49       0.001     0.000
  jd21                    7.48     1.291      0  04:00       6.850     0.000
  jd28                    8.09     0.938      0  04:00       5.200     0.000
  jd31                    0.01     0.626      0  03:31       0.005     0.000
  jd32                    7.98     1.909      0  04:00       9.183     0.000
  jd35                    8.34     1.516      0  04:00       8.352     0.000
  jd39                    7.70     2.148      0  04:00      11.720     0.000
  jd41                    7.32     2.461      0  04:00      11.546     0.000
  jd45                    7.83     1.770      0  04:00       9.996     0.000
  jd50                    8.16     2.740      0  04:00      19.466     0.000
  jd51                    7.26     0.990      0  04:00       3.965     0.000
  jd59                    7.19     0.716      0  04:00       2.645     0.000
  jd60                    7.90     0.553      0  04:00       2.864     0.000
  jd64                    0.01     0.403      0  03:48       0.012     0.000
  jd65                    0.67     0.943      0  04:00       1.314     0.000
  jd66                    7.74     0.897      0  04:00       4.608     0.000
  jd79                    1.33     0.758      0  04:00       1.780     0.000
  jd80                    0.85     0.620      0  04:00       1.294     0.000
  jd83                    8.37     0.649      0  04:00       3.551     0.000
  jd85                    7.78     0.234      0  04:00       1.157     0.000
  jd87                    7.82     0.276      0  04:00       1.414     0.000
  jd96                    7.88     0.304      0  04:00       1.567     0.000
  jd99                    7.73     0.230      0  04:00       1.170     0.000
  jd106                   7.48     0.531      0  04:00       2.461     0.000
  jd110                   7.77     0.289      0  04:00       1.465     0.000
  jd114                   7.70     1.892      0  04:00       9.667     0.000
  jd117                   0.01     0.276      0  03:18       0.003     0.000
  jd122                   7.68     1.851      0  04:00      15.860     0.000
  jd123                   3.01     1.605      0  04:00       5.430     0.000
  jd124                   8.62     1.654      0  04:00      10.335     0.000
  jd125                   0.01     0.282      0  03:50       0.003     0.000
  jd126                   8.37     1.233      0  04:00       6.915     0.000
  
  
  ***********************
  Outfall Loading Summary
  ***********************
  
  -----------------------------------------------------------
                         Flow       Avg       Max       Total
                         Freq      Flow      Flow      Volume
  Outfall Node           Pcnt       CMS       CMS    10^6 ltr
  -----------------------------------------------------------
  psk1                  95.83     0.053     0.246       1.320
  psk2                  95.70     0.126     0.568       3.193
  psk3                  95.92     0.211     0.978       5.324
  psk4                   0.00     0.000     0.000       0.000
  psk5                  95.80     0.054     0.242       1.366
  psk6                  95.67     0.044     0.205       1.110
  psk7                  95.89     0.346     1.446       8.956
  psk8                   0.00     0.000     0.000       0.000
  -----------------------------------------------------------
  System                71.85     0.833     0.000      21.269
  
  
  ********************
  Link Flow Summary
  ********************
  
  -----------------------------------------------------------------------------
                                 Maximum  Time of Max   Maximum    Max/    Max/
                                  |Flow|   Occurrence   |Veloc|    Full    Full
  Link                 Type          CMS  days hr:min     m/sec    Flow   Depth
  -----------------------------------------------------------------------------
  GQ1                  CONDUIT     0.140     0  04:01      1.64    0.37    0.34
  GQ2                  CONDUIT     0.363     0  04:01      1.87    0.17    0.30
  GQ3                  CONDUIT     0.246     0  04:00      4.67    0.01    0.07
  GQ4                  CONDUIT     0.510     0  04:01      1.80    1.00    1.00
  GQ5                  CONDUIT     0.457     0  04:00      1.19    0.38    0.71
  GQ6                  CONDUIT     0.131     0  04:00      1.05    0.06    0.30
  GQ7                  CONDUIT     1.529     0  04:03      3.59    0.91    0.89
  GQ8                  CONDUIT     0.242     0  04:00      0.86    0.23    0.55
  GQ9                  CONDUIT     0.657     0  04:00      1.86    0.23    0.66
  GQ10                 CONDUIT     1.135     0  03:35      4.10    1.04    1.00
  GQ11                 CONDUIT     0.081     0  04:00      1.62    0.09    0.27
  GQ12                 CONDUIT     0.089     0  04:00      0.50    0.10    0.60
  GQ13                 CONDUIT     0.063     0  04:00      0.46    0.03    0.56
  GQ14                 CONDUIT     0.030     0  04:00      0.76    0.04    0.13
  GQ15                 CONDUIT     0.083     0  04:00      3.54    0.34    0.37
  GQ16                 CONDUIT     0.493     0  04:01      3.10    0.24    0.26
  GQ17                 CONDUIT     0.146     0  04:00      1.06    0.05    0.33
  GQ18                 CONDUIT     1.015     0  04:00      2.50    4.58    0.75
  GQ19                 CONDUIT     0.194     0  04:00      1.30    0.02    0.25
  GQ20                 CONDUIT     0.043     0  04:00      0.40    0.02    0.20
  GQ21                 CONDUIT     0.155     0  04:00      1.23    0.05    0.22
  GQ22                 CONDUIT     0.157     0  04:00      1.43    0.05    0.20
  GQ23                 CONDUIT     0.272     0  04:00      1.82    0.13    0.24
  GQ24                 CONDUIT     0.404     0  04:00      1.17    0.20    0.65
  GQ25                 CONDUIT     0.270     0  04:00      2.93    0.30    0.36
  GQ26                 CONDUIT     0.210     0  04:00      2.20    0.25    0.37
  GQ27                 CONDUIT     0.343     0  04:00      1.62    0.34    0.70
  GQ28                 CONDUIT     0.152     0  04:00      0.45    0.16    0.64
  GQ29                 CONDUIT     0.599     0  03:31      1.19    0.28    1.00
  GQ30                 CONDUIT     0.614     0  04:00      2.17    0.75    1.00
  GQ31                 CONDUIT     0.236     0  04:00      1.13    0.32    0.69
  GQ32                 CONDUIT     0.321     0  04:01      2.58    0.52    0.45
  GQ33                 CONDUIT     0.825     0  04:00      3.52    0.58    0.77
  GQ34                 CONDUIT     0.152     0  04:00      1.28    0.24    0.44
  GQ35                 CONDUIT     0.306     0  04:00      1.96    0.57    0.54
  GQ36                 CONDUIT     0.458     0  04:00      2.66    0.57    0.59
  GQ37                 CONDUIT     0.198     0  04:00      0.96    0.28    0.68
  GQ38                 CONDUIT     0.074     0  04:00      0.41    0.11    0.61
  GQ39                 CONDUIT     0.340     0  04:00      1.54    0.44    0.73
  GQ40                 CONDUIT     0.228     0  04:00      2.07    0.28    0.41
  GQ41                 CONDUIT     0.664     0  04:00      1.15    0.31    0.69
  GQ42                 CONDUIT     0.994     0  04:03      2.15    0.73    0.87
  GQ43                 CONDUIT     1.236     0  04:01      3.92    0.55    0.63
  GQ44                 CONDUIT     0.915     0  04:00      1.82    0.97    1.00
  GQ45                 CONDUIT     0.402     0  04:00      1.81    0.16    0.64
  GQ46                 CONDUIT     0.816     0  04:00      1.94    0.76    1.00
  GQ47                 CONDUIT     0.069     0  04:00      0.40    0.07    0.59
  GQ48                 CONDUIT     0.069     0  04:00      0.40    0.07    0.59
  GQ49                 CONDUIT     0.256     0  04:00      1.43    0.10    0.60
  GQ50                 CONDUIT     0.074     0  04:00      0.90    0.10    0.33
  GQ51                 CONDUIT     0.276     0  04:00      2.17    0.42    0.46
  GQ52                 CONDUIT     0.182     0  04:02      0.70    0.24    0.67
  GQ53                 CONDUIT     1.353     0  04:02      1.99    0.61    0.81
  GQ54                 CONDUIT     0.166     0  04:00      0.89    0.14    0.63
  GQ55                 CONDUIT     0.128     0  04:00      0.72    0.09    0.60
  GQ56                 CONDUIT     1.574     0  04:00      4.03    0.86    0.74
  GQ57                 CONDUIT     0.209     0  04:00      0.87    0.14    0.48
  GQ58                 CONDUIT     0.435     0  04:00      1.32    0.14    0.62
  GQ59                 CONDUIT     0.948     0  04:03      2.05    0.79    0.87
  GQ60                 CONDUIT     0.785     0  03:54      0.66    0.19    0.64
  GQ61                 CONDUIT     0.106     0  04:00      0.18    0.01    0.54
  GQ62                 CONDUIT     0.219     0  04:00      0.25    0.02    0.55
  GQ63                 CONDUIT     0.498     0  04:00      0.43    0.01    0.54
  GQ64                 CONDUIT     0.037     0  04:00      1.13    0.03    0.19
  GQ65                 CONDUIT     0.016     0  04:00      0.28    0.03    0.27
  GQ66                 CONDUIT     0.064     0  04:00      0.36    0.02    0.55
  GQ67                 CONDUIT     0.359     0  03:47      0.32    0.25    1.00
  GQ68                 CONDUIT     0.269     0  04:00      0.55    0.09    0.60
  GQ69                 CONDUIT     0.591     0  04:00      1.69    0.21    0.66
  GQ70                 CONDUIT     0.205     0  04:00      6.16    0.03    0.12
  GQ71                 CONDUIT     0.242     0  04:00      4.47    0.06    0.16
  GQ72                 CONDUIT     1.446     0  04:00      4.84    0.35    0.41
  GQ73                 CONDUIT     0.568     0  04:00      9.31    0.04    0.13
  GQ74                 CONDUIT     0.128     0  04:00      1.09    0.02    0.21
  GQ75                 CONDUIT     0.128     0  04:00      0.28    0.04    0.57
  GQ76                 CONDUIT     0.978     0  04:00      4.67    0.21    0.31
  GQ77                 CONDUIT     0.000     0  00:00      0.00    0.00    0.14
  GQ78                 CONDUIT     0.442     0  04:00      1.96    0.48    0.74
  GQ79                 CONDUIT     0.221     0  04:00      1.08    0.47    0.68
  GQ80                 CONDUIT     0.184     0  04:01      0.81    0.30    0.74
  GQ81                 CONDUIT     0.528     0  03:30      1.87    3.35    1.00
  GQ82                 CONDUIT     0.214     0  04:00      1.14    0.15    0.63
  GQ83                 CONDUIT     0.230     0  04:00      2.26    0.15    0.39
  GQ84                 CONDUIT     0.472     0  04:00      2.38    0.37    0.69
  GQ85                 CONDUIT     0.155     0  04:00      0.72    0.27    0.71
  GQ86                 CONDUIT     0.068     0  04:00      0.42    0.03    0.56
  GQ87                 CONDUIT     0.024     0  04:00      0.14    0.03    0.56
  GQ88                 CONDUIT     0.161     0  04:00      0.86    0.14    0.63
  GQ89                 CONDUIT     0.130     0  04:00      0.68    0.17    0.64
  GQ90                 CONDUIT     0.135     0  04:00      0.73    0.14    0.62
  GQ91                 CONDUIT     0.115     0  04:00      0.61    0.14    0.63
  GQ92                 CONDUIT     0.270     0  04:01      1.49    0.39    0.39
  GQ93                 CONDUIT     0.283     0  04:01      1.30    0.24    0.45
  GQ94                 CONDUIT     0.506     0  04:01      2.00    0.60    0.55
  GQ95                 CONDUIT     0.074     0  04:00      0.26    0.02    0.55
  GQ96                 CONDUIT     0.242     0  04:00      1.12    0.41    0.45
  GQ97                 CONDUIT     0.135     0  04:00      1.64    0.24    0.33
  GQ98                 CONDUIT     0.164     0  04:00      0.82    0.23    0.66
  GQ99                 CONDUIT     0.240     0  04:00      0.31    0.01    0.54
  GQ100                CONDUIT     0.169     0  04:00      2.33    0.29    0.30
  GQ101                CONDUIT     0.121     0  04:00      0.68    0.09    0.60
  GQ102                CONDUIT     0.463     0  04:00      1.40    0.14    0.63
  GQ103                CONDUIT     0.231     0  04:00      1.08    0.36    0.71
  GQ104                CONDUIT     0.390     0  04:00      1.90    0.28    0.68
  GQ105                CONDUIT     0.473     0  03:19      0.94    1.50    1.00
  GQ106                CONDUIT     0.136     0  04:00      0.73    0.14    0.62
  GQ107                CONDUIT     0.485     0  04:00      2.19    0.44    0.73
  GQ108                CONDUIT     0.829     0  04:02      1.65    1.00    1.00
  GQ109                CONDUIT     0.099     0  04:00      1.13    0.13    0.35
  GQ110                CONDUIT     0.160     0  04:00      0.36    0.02    0.55
  GQ111                CONDUIT     0.147     0  04:00      0.79    0.13    0.62
  GQ112                CONDUIT     0.446     0  04:00      2.38    0.08    0.22
  GQ113                CONDUIT     0.246     0  04:00      2.94    0.19    0.34
  GQ114                CONDUIT     0.151     0  04:00      0.31    0.06    0.60
  GQ115                CONDUIT     0.065     0  04:00      0.87    0.01    0.13
  GQ116                CONDUIT     0.094     0  04:00      0.22    0.01    0.54
  GQ117                CONDUIT     0.335     0  04:00      3.58    0.21    0.24
  GQ118                CONDUIT     0.128     0  04:00      1.58    0.04    0.25
  GQ119                CONDUIT     1.295     0  04:01      3.13    0.56    0.77
  GQ120                CONDUIT     0.000     0  00:00      0.00    0.00    0.50
  GQ121                CONDUIT     0.454     0  04:00      0.90    0.32    1.00
  GQ122                CONDUIT     0.191     0  04:00      1.12    0.03    0.56
  GQ123                CONDUIT     0.128     0  04:00      1.00    0.06    0.58
  GQ124                CONDUIT     0.080     0  04:00      0.89    0.03    0.25
  GQ125                CONDUIT     0.156     0  04:00      0.81    0.18    0.64
  GQ126                CONDUIT     0.190     0  04:00      0.99    0.18    0.64
  GQ127                CONDUIT     0.432     0  04:01      1.58    0.55    0.53
  GQ128                CONDUIT     0.653     0  04:00      2.41    0.14    0.31
  GQ129                CONDUIT     1.102     0  04:00      2.19    0.84    1.00
  GQ130                CONDUIT     1.004     0  04:00      3.55    0.94    1.00
  GQ131                CONDUIT     0.363     0  04:00      1.65    0.42    0.73
  
  
  ***************************
  Flow Classification Summary
  ***************************
  
  -------------------------------------------------------------------------------------
                      Adjusted    ---------- Fraction of Time in Flow Class ---------- 
                       /Actual         Up    Down  Sub   Sup   Up    Down  Norm  Inlet 
  Conduit               Length    Dry  Dry   Dry   Crit  Crit  Crit  Crit  Ltd   Ctrl  
  -------------------------------------------------------------------------------------
  GQ1                     1.00   0.04  0.00  0.00  0.05  0.91  0.00  0.00  0.00  0.00
  GQ2                     1.00   0.04  0.00  0.00  0.08  0.88  0.00  0.00  0.91  0.00
  GQ3                     1.00   0.04  0.00  0.00  0.00  0.96  0.00  0.00  0.16  0.00
  GQ4                     1.00   0.04  0.00  0.00  0.96  0.00  0.00  0.00  0.79  0.00
  GQ5                     1.00   0.04  0.00  0.00  0.96  0.00  0.00  0.00  0.91  0.00
  GQ6                     1.00   0.04  0.00  0.00  0.95  0.01  0.00  0.00  0.91  0.00
  GQ7                     1.00   0.04  0.00  0.00  0.01  0.95  0.00  0.00  0.07  0.00
  GQ8                     1.00   0.04  0.00  0.00  0.96  0.00  0.00  0.00  0.90  0.00
  GQ9                     1.00   0.04  0.00  0.00  0.95  0.01  0.00  0.00  0.91  0.00
  GQ10                    1.00   0.04  0.00  0.00  0.81  0.15  0.00  0.00  0.83  0.00
  GQ11                    1.00   0.04  0.00  0.00  0.44  0.52  0.00  0.00  0.89  0.00
  GQ12                    1.00   0.04  0.00  0.00  0.96  0.00  0.00  0.00  0.91  0.00
  GQ13                    1.00   0.04  0.00  0.00  0.96  0.00  0.00  0.00  0.91  0.00
  GQ14                    1.00   0.04  0.00  0.00  0.96  0.00  0.00  0.00  0.00  0.00
  GQ15                    1.00   0.04  0.00  0.00  0.00  0.96  0.00  0.00  0.01  0.00
  GQ16                    1.00   0.04  0.00  0.00  0.01  0.95  0.00  0.00  0.00  0.00
  GQ17                    1.00   0.04  0.00  0.00  0.83  0.14  0.00  0.00  0.91  0.00
  GQ18                    1.00   0.04  0.00  0.00  0.92  0.04  0.00  0.00  0.12  0.00
  GQ19                    1.00   0.04  0.00  0.00  0.78  0.18  0.00  0.00  0.91  0.00
  GQ20                    1.00   0.04  0.00  0.00  0.96  0.00  0.00  0.00  0.91  0.00
  GQ21                    1.00   0.04  0.00  0.00  0.37  0.60  0.00  0.00  0.91  0.00
  GQ22                    1.00   0.04  0.00  0.00  0.04  0.92  0.00  0.00  0.91  0.00
  GQ23                    1.00   0.04  0.00  0.00  0.02  0.94  0.00  0.00  0.06  0.00
  GQ24                    1.00   0.04  0.00  0.00  0.96  0.00  0.00  0.00  0.91  0.00
  GQ25                    1.00   0.04  0.00  0.00  0.00  0.96  0.00  0.00  0.01  0.00
  GQ26                    1.00   0.04  0.00  0.00  0.00  0.96  0.00  0.00  0.84  0.00
  GQ27                    1.00   0.04  0.00  0.00  0.85  0.11  0.00  0.00  0.91  0.00
  GQ28                    1.00   0.04  0.00  0.00  0.96  0.00  0.00  0.00  0.91  0.00
  GQ29                    1.00   0.04  0.00  0.00  0.96  0.00  0.00  0.00  0.21  0.00
  GQ30                    1.00   0.04  0.00  0.00  0.93  0.03  0.00  0.00  0.18  0.00
  GQ31                    1.00   0.04  0.00  0.00  0.96  0.00  0.00  0.00  0.91  0.00
  GQ32                    1.00   0.04  0.00  0.00  0.01  0.95  0.00  0.00  0.00  0.00
  GQ33                    1.00   0.04  0.00  0.00  0.81  0.16  0.00  0.00  0.91  0.00
  GQ34                    1.00   0.04  0.00  0.00  0.95  0.01  0.00  0.00  0.91  0.00
  GQ35                    1.00   0.04  0.00  0.00  0.01  0.95  0.00  0.00  0.59  0.00
  GQ36                    1.00   0.04  0.00  0.00  0.00  0.96  0.00  0.00  0.86  0.00
  GQ37                    1.00   0.04  0.00  0.00  0.96  0.00  0.00  0.00  0.91  0.00
  GQ38                    1.00   0.04  0.00  0.00  0.96  0.00  0.00  0.00  0.91  0.00
  GQ39                    1.00   0.04  0.00  0.00  0.94  0.02  0.00  0.00  0.90  0.00
  GQ40                    1.00   0.04  0.00  0.00  0.03  0.93  0.00  0.00  0.91  0.00
  GQ41                    1.00   0.04  0.00  0.00  0.96  0.00  0.00  0.00  0.91  0.00
  GQ42                    1.00   0.04  0.00  0.00  0.96  0.00  0.00  0.00  0.86  0.00
  GQ43                    1.00   0.04  0.00  0.00  0.01  0.95  0.00  0.00  0.91  0.00
  GQ44                    1.00   0.04  0.00  0.00  0.96  0.00  0.00  0.00  0.80  0.00
  GQ45                    1.00   0.04  0.00  0.00  0.22  0.75  0.00  0.00  0.91  0.00
  GQ46                    1.00   0.04  0.00  0.00  0.20  0.76  0.00  0.00  0.71  0.00
  GQ47                    1.00   0.04  0.00  0.00  0.96  0.00  0.00  0.00  0.91  0.00
  GQ48                    1.00   0.04  0.00  0.00  0.96  0.00  0.00  0.00  0.91  0.00
  GQ49                    1.00   0.04  0.00  0.00  0.94  0.02  0.00  0.00  0.91  0.00
  GQ50                    1.00   0.04  0.00  0.00  0.96  0.00  0.00  0.00  0.91  0.00
  GQ51                    1.00   0.04  0.00  0.00  0.01  0.95  0.00  0.00  0.66  0.00
  GQ52                    1.00   0.04  0.00  0.00  0.96  0.00  0.00  0.00  0.75  0.00
  GQ53                    1.00   0.04  0.00  0.00  0.96  0.00  0.00  0.00  0.87  0.00
  GQ54                    1.00   0.04  0.00  0.00  0.96  0.00  0.00  0.00  0.91  0.00
  GQ55                    1.00   0.04  0.00  0.00  0.96  0.00  0.00  0.00  0.91  0.00
  GQ56                    1.00   0.04  0.00  0.00  0.00  0.96  0.00  0.00  0.70  0.00
  GQ57                    1.00   0.04  0.00  0.00  0.96  0.00  0.00  0.00  0.91  0.00
  GQ58                    1.00   0.04  0.00  0.00  0.96  0.00  0.00  0.00  0.91  0.00
  GQ59                    1.00   0.04  0.00  0.00  0.96  0.00  0.00  0.00  0.88  0.00
  GQ60                    1.00   0.04  0.00  0.00  0.96  0.00  0.00  0.00  0.23  0.00
  GQ61                    1.00   0.04  0.00  0.00  0.96  0.00  0.00  0.00  0.91  0.00
  GQ62                    1.00   0.04  0.00  0.00  0.96  0.00  0.00  0.00  0.91  0.00
  GQ63                    1.00   0.04  0.00  0.00  0.94  0.02  0.00  0.00  0.91  0.00
  GQ64                    1.00   0.04  0.00  0.00  0.42  0.54  0.00  0.00  0.91  0.00
  GQ65                    1.00   0.04  0.00  0.00  0.96  0.00  0.00  0.00  0.91  0.00
  GQ66                    1.00   0.04  0.00  0.00  0.96  0.00  0.00  0.00  0.91  0.00
  GQ67                    1.00   0.04  0.00  0.00  0.96  0.00  0.00  0.00  0.18  0.00
  GQ68                    1.00   0.04  0.00  0.00  0.96  0.00  0.00  0.00  0.91  0.00
  GQ69                    1.00   0.04  0.00  0.00  0.93  0.03  0.00  0.00  0.91  0.00
  GQ70                    1.00   0.04  0.00  0.00  0.00  0.95  0.00  0.00  0.07  0.00
  GQ71                    1.00   0.04  0.00  0.00  0.00  0.96  0.00  0.00  0.53  0.00
  GQ72                    1.00   0.04  0.00  0.00  0.00  0.96  0.00  0.00  0.13  0.00
  GQ73                    1.00   0.04  0.00  0.00  0.00  0.95  0.00  0.00  0.08  0.00
  GQ74                    1.00   0.04  0.00  0.00  0.84  0.12  0.00  0.00  0.91  0.00
  GQ75                    1.00   0.04  0.00  0.00  0.96  0.00  0.00  0.00  0.91  0.00
  GQ76                    1.00   0.04  0.00  0.00  0.00  0.96  0.00  0.00  0.13  0.00
  GQ77                    1.00   0.04  0.96  0.00  0.00  0.00  0.00  0.00  0.00  0.00
  GQ78                    1.00   0.04  0.00  0.00  0.96  0.00  0.00  0.00  0.91  0.00
  GQ79                    1.00   0.04  0.00  0.00  0.96  0.00  0.00  0.00  0.18  0.00
  GQ80                    1.00   0.04  0.00  0.00  0.96  0.00  0.00  0.00  0.84  0.00
  GQ81                    1.00   0.04  0.00  0.00  0.96  0.00  0.00  0.00  0.00  0.00
  GQ82                    1.00   0.04  0.00  0.00  0.91  0.05  0.00  0.00  0.91  0.00
  GQ83                    1.00   0.04  0.00  0.00  0.00  0.96  0.00  0.00  0.91  0.00
  GQ84                    1.00   0.04  0.00  0.00  0.18  0.78  0.00  0.00  0.91  0.00
  GQ85                    1.00   0.04  0.00  0.00  0.96  0.00  0.00  0.00  0.83  0.00
  GQ86                    1.00   0.04  0.00  0.00  0.95  0.01  0.00  0.00  0.91  0.00
  GQ87                    1.00   0.04  0.00  0.00  0.96  0.00  0.00  0.00  0.91  0.00
  GQ88                    1.00   0.04  0.00  0.00  0.96  0.00  0.00  0.00  0.91  0.00
  GQ89                    1.00   0.04  0.00  0.00  0.96  0.00  0.00  0.00  0.91  0.00
  GQ90                    1.00   0.04  0.00  0.00  0.94  0.02  0.00  0.00  0.91  0.00
  GQ91                    1.00   0.04  0.00  0.00  0.96  0.00  0.00  0.00  0.91  0.00
  GQ92                    1.00   0.04  0.00  0.00  0.87  0.09  0.00  0.00  0.00  0.00
  GQ93                    1.00   0.04  0.00  0.00  0.96  0.00  0.00  0.00  0.91  0.00
  GQ94                    1.00   0.04  0.00  0.00  0.36  0.60  0.00  0.00  0.04  0.00
  GQ95                    1.00   0.04  0.00  0.00  0.96  0.00  0.00  0.00  0.91  0.00
  GQ96                    1.00   0.04  0.00  0.00  0.96  0.00  0.00  0.00  0.60  0.00
  GQ97                    1.00   0.04  0.00  0.00  0.01  0.95  0.00  0.00  0.29  0.00
  GQ98                    1.00   0.04  0.00  0.00  0.96  0.00  0.00  0.00  0.90  0.00
  GQ99                    1.00   0.04  0.00  0.00  0.96  0.00  0.00  0.00  0.91  0.00
  GQ100                   1.00   0.04  0.00  0.00  0.01  0.95  0.00  0.00  0.00  0.00
  GQ101                   1.00   0.04  0.00  0.00  0.95  0.02  0.00  0.00  0.91  0.00
  GQ102                   1.00   0.04  0.00  0.00  0.93  0.03  0.00  0.00  0.91  0.00
  GQ103                   1.00   0.04  0.00  0.00  0.96  0.00  0.00  0.00  0.91  0.00
  GQ104                   1.00   0.04  0.00  0.00  0.95  0.01  0.00  0.00  0.91  0.00
  GQ105                   1.00   0.04  0.00  0.00  0.96  0.00  0.00  0.00  0.16  0.00
  GQ106                   1.00   0.04  0.00  0.00  0.95  0.01  0.00  0.00  0.91  0.00
  GQ107                   1.00   0.04  0.00  0.00  0.87  0.09  0.00  0.00  0.91  0.00
  GQ108                   1.00   0.04  0.00  0.00  0.96  0.00  0.00  0.00  0.21  0.00
  GQ109                   1.00   0.04  0.00  0.00  0.86  0.10  0.00  0.00  0.90  0.00
  GQ110                   1.00   0.04  0.00  0.00  0.95  0.01  0.00  0.00  0.91  0.00
  GQ111                   1.00   0.04  0.00  0.00  0.95  0.01  0.00  0.00  0.91  0.00
  GQ112                   1.00   0.04  0.00  0.00  0.00  0.96  0.00  0.00  0.91  0.00
  GQ113                   1.00   0.04  0.00  0.00  0.00  0.96  0.00  0.00  0.88  0.00
  GQ114                   1.00   0.04  0.00  0.00  0.96  0.00  0.00  0.00  0.19  0.00
  GQ115                   1.00   0.04  0.00  0.00  0.94  0.02  0.00  0.00  0.91  0.00
  GQ116                   1.00   0.04  0.00  0.00  0.96  0.00  0.00  0.00  0.91  0.00
  GQ117                   1.00   0.04  0.00  0.00  0.00  0.96  0.00  0.00  0.00  0.00
  GQ118                   1.00   0.04  0.00  0.00  0.42  0.54  0.00  0.00  0.91  0.00
  GQ119                   1.00   0.04  0.00  0.00  0.86  0.10  0.00  0.00  0.91  0.00
  GQ120                   1.00   0.04  0.13  0.00  0.83  0.00  0.00  0.00  0.00  0.00
  GQ121                   1.00   0.04  0.00  0.00  0.96  0.00  0.00  0.00  0.19  0.00
  GQ122                   1.00   0.04  0.00  0.00  0.85  0.11  0.00  0.00  0.91  0.00
  GQ123                   1.00   0.04  0.00  0.00  0.84  0.12  0.00  0.00  0.91  0.00
  GQ124                   1.00   0.04  0.00  0.00  0.95  0.01  0.00  0.00  0.91  0.00
  GQ125                   1.00   0.04  0.00  0.00  0.95  0.01  0.00  0.00  0.91  0.00
  GQ126                   1.00   0.04  0.00  0.00  0.96  0.00  0.00  0.00  0.91  0.00
  GQ127                   1.00   0.04  0.00  0.00  0.96  0.00  0.00  0.00  0.63  0.00
  GQ128                   1.00   0.04  0.00  0.00  0.01  0.95  0.00  0.00  0.77  0.00
  GQ129                   1.00   0.04  0.00  0.00  0.96  0.00  0.00  0.00  0.82  0.00
  GQ130                   1.00   0.04  0.00  0.00  0.89  0.08  0.00  0.00  0.82  0.00
  GQ131                   1.00   0.04  0.00  0.00  0.96  0.00  0.00  0.00  0.91  0.00
  
  
  *************************
  Conduit Surcharge Summary
  *************************
  
  ----------------------------------------------------------------------------
                                                           Hours        Hours 
                         --------- Hours Full --------   Above Full   Capacity
  Conduit                Both Ends  Upstream  Dnstream   Normal Flow   Limited
  ----------------------------------------------------------------------------
  GQ4                         0.57      0.57      7.79      0.01         0.01
  GQ5                         0.01      0.01      7.69      0.01         0.01
  GQ7                         0.01      0.01      0.37      0.01         0.01
  GQ9                         0.01      0.01      8.16      0.01         0.01
  GQ10                        0.72      0.72      8.29      0.08         0.01
  GQ12                        0.01      0.01      2.08      0.01         0.01
  GQ13                        0.01      0.01      0.29      0.01         0.01
  GQ18                        0.01      0.01      1.27      1.61         0.01
  GQ24                        0.01      0.01      7.98      0.01         0.01
  GQ27                        0.01      0.01      7.57      0.01         0.01
  GQ28                        0.01      0.01      7.72      0.01         0.01
  GQ29                        7.47      7.47      7.72      0.01         0.01
  GQ30                        7.57      7.57      7.83      0.01         0.01
  GQ31                        0.01      0.01      8.35      0.01         0.01
  GQ33                        0.01      0.01      8.35      0.01         0.01
  GQ37                        0.01      0.01      8.09      0.01         0.01
  GQ38                        0.01      0.01      8.09      0.01         0.01
  GQ39                        0.01      0.01      2.08      0.01         0.01
  GQ41                        0.01      0.01      7.70      0.01         0.01
  GQ42                        0.01      0.01      7.77      0.01         0.01
  GQ44                        0.70      0.70      1.27      0.01         0.01
  GQ45                        0.01      0.01      0.25      0.01         0.01
  GQ46                        0.25      0.25      0.70      0.01         0.01
  GQ47                        0.01      0.01      7.78      0.01         0.01
  GQ48                        0.01      0.01      7.88      0.01         0.01
  GQ49                        0.01      0.01      7.88      0.01         0.01
  GQ52                        0.01      0.01      7.47      0.01         0.01
  GQ53                        0.01      0.01      7.84      0.01         0.01
  GQ54                        0.01      0.01      7.90      0.01         0.01
  GQ55                        0.01      0.01      7.90      0.01         0.01
  GQ58                        0.01      0.01      7.62      0.01         0.01
  GQ59                        0.01      0.01      7.62      0.01         0.01
  GQ60                        0.01      0.01      0.18      0.01         0.01
  GQ61                        0.01      0.01      7.20      0.01         0.01
  GQ62                        0.01      0.01      7.27      0.01         0.01
  GQ63                        0.01      0.01      7.32      0.01         0.01
  GQ66                        0.01      0.01      7.35      0.01         0.01
  GQ67                        7.21      7.21      7.28      0.01         0.01
  GQ68                        0.01      0.01      7.48      0.01         0.01
  GQ69                        0.01      0.01      7.74      0.01         0.01
  GQ75                        0.01      0.01      7.48      0.01         0.01
  GQ78                        0.01      0.01      8.01      0.01         0.01
  GQ79                        0.01      0.01      8.01      0.01         0.01
  GQ80                        0.01      0.01      1.70      0.01         0.01
  GQ81                        1.62      1.70      2.08      1.32         0.49
  GQ82                        0.01      0.01      2.08      0.01         0.01
  GQ85                        0.01      0.01      8.38      0.01         0.01
  GQ86                        0.01      0.01      7.78      0.01         0.01
  GQ87                        0.01      0.01      7.78      0.01         0.01
  GQ88                        0.01      0.01      7.83      0.01         0.01
  GQ89                        0.01      0.01      7.55      0.01         0.01
  GQ90                        0.01      0.01      7.44      0.01         0.01
  GQ91                        0.01      0.01      7.63      0.01         0.01
  GQ95                        0.01      0.01      7.88      0.01         0.01
  GQ98                        0.01      0.01      7.73      0.01         0.01
  GQ99                        0.01      0.01      7.30      0.01         0.01
  GQ101                       0.01      0.01      7.64      0.01         0.01
  GQ102                       0.01      0.01      7.72      0.01         0.01
  GQ103                       0.01      0.01      7.89      0.01         0.01
  GQ104                       0.01      0.01      7.89      0.01         0.01
  GQ105                       7.67      7.67      7.72      2.34         0.01
  GQ106                       0.01      0.01      7.72      0.01         0.01
  GQ107                       0.01      0.01      7.72      0.01         0.01
  GQ108                       1.32      1.32      7.67      0.01         0.01
  GQ110                       0.01      0.01      7.48      0.01         0.01
  GQ111                       0.01      0.01      7.64      0.01         0.01
  GQ114                       0.01      0.01      7.85      0.01         0.01
  GQ116                       0.01      0.01      7.77      0.01         0.01
  GQ119                       0.01      0.01      7.97      0.01         0.01
  GQ120                       0.01      0.01      7.85      0.01         0.01
  GQ121                       7.70      7.70      7.97      0.01         0.01
  GQ122                       0.01      0.01      7.70      0.01         0.01
  GQ123                       0.01      0.01      7.72      0.01         0.01
  GQ125                       0.01      0.01      7.63      0.01         0.01
  GQ126                       0.01      0.01      7.64      0.01         0.01
  GQ129                       0.37      0.37      7.98      0.01         0.01
  GQ130                       0.54      0.54      8.62      0.01         0.01
  GQ131                       0.01      0.01      8.37      0.01         0.01
  

  Analysis begun on:  Sat Mar 25 16:20:12 2023
  Analysis ended on:  Sat Mar 25 16:20:15 2023
  Total elapsed time: 00:00:03