
  OWA STORM WATER MANAGEMENT MODEL - VERSION v5.1.14 (OWA 2022-07-31)
  --------------------------------------------------------------

  INP file created by DSDAConvertToSwmmTools 
  version 0.0.1 EcoVista 
  Title/Notes: 
  
  
  *********************************************************
  NOTE: The summary statistics displayed in this report are
  based on results found at every computational time step,  
  not just on results from each reporting time step.
  *********************************************************
  
  ****************
  Analysis Options
  ****************
  Flow Units ............... CMS
  Process Models:
    Rainfall/Runoff ........ YES
    RDII ................... NO
    Snowmelt ............... NO
    Groundwater ............ NO
    Flow Routing ........... YES
    Ponding Allowed ........ NO
    Water Quality .......... NO
  Infiltration Method ...... GREEN_AMPT
  Flow Routing Method ...... DYNWAVE
  Surcharge Method ......... EXTRAN
  Starting Date ............ 07/15/2020 00:00:00
  Ending Date .............. 07/15/2020 07:00:00
  Antecedent Dry Days ...... 0.0
  Report Time Step ......... 00:30:00
  Wet Time Step ............ 00:05:00
  Dry Time Step ............ 01:00:00
  Routing Time Step ........ 30.00 sec
  Variable Time Step ....... YES
  Maximum Trials ........... 8
  Number of Threads ........ 1
  Head Tolerance ........... 0.001500 m
  
  
  **************************        Volume         Depth
  Runoff Quantity Continuity     hectare-m            mm
  **************************     ---------       -------
  Total Precipitation ......        10.390         2.600
  Evaporation Loss .........         2.238         0.560
  Infiltration Loss ........         2.777         0.695
  Surface Runoff ...........         0.974         0.244
  Final Storage ............         4.418         1.106
  Continuity Error (%) .....        -0.162
  
  
  **************************        Volume        Volume
  Flow Routing Continuity        hectare-m      10^6 ltr
  **************************     ---------     ---------
  Dry Weather Inflow .......         0.000         0.000
  Wet Weather Inflow .......         0.954         9.541
  Groundwater Inflow .......         0.000         0.000
  RDII Inflow ..............         0.000         0.000
  External Inflow ..........         0.000         0.000
  External Outflow .........         0.076         0.758
  Flooding Loss ............         0.167         1.672
  Evaporation Loss .........         0.000         0.000
  Exfiltration Loss ........         0.000         0.000
  Initial Stored Volume ....         0.000         0.000
  Final Stored Volume ......         0.703         7.032
  Continuity Error (%) .....         0.842
  
  
  *************************
  Highest Continuity Errors
  *************************
  Node jd3 (100.00%)
  Node jd10 (100.00%)
  Node jd21 (100.00%)
  Node jd39 (100.00%)
  Node jd41 (100.00%)
  
  
  ***************************
  Time-Step Critical Elements
  ***************************
  Link GQ73 (68.57%)
  
  
  ********************************
  Highest Flow Instability Indexes
  ********************************
  Link GQ70 (11)
  Link GQ73 (7)
  Link GQ3 (6)
  Link GQ121 (5)
  Link GQ71 (3)
  
  
  *************************
  Routing Time Step Summary
  *************************
  Minimum Time Step           :     1.27 sec
  Average Time Step           :    24.83 sec
  Maximum Time Step           :    30.00 sec
  Percent in Steady State     :     0.00
  Average Iterations per Step :     2.46
  Percent Not Converging      :     6.31
  
  
  ***************************
  Subcatchment Runoff Summary
  ***************************
  
  ------------------------------------------------------------------------------------------------------------------------------
                            Total      Total      Total      Total     Imperv       Perv      Total       Total     Peak  Runoff
                           Precip      Runon       Evap      Infil     Runoff     Runoff     Runoff      Runoff   Runoff   Coeff
  Subcatchment                 mm         mm         mm         mm         mm         mm         mm    10^6 ltr      CMS
  ------------------------------------------------------------------------------------------------------------------------------
  1                          2.60       0.00       0.34       1.46       0.15       0.00       0.15        0.06     0.01   0.058
  2                          2.60       0.00       0.60       0.55       0.24       0.00       0.24        0.22     0.03   0.093
  3                          2.60       0.00       0.62       0.47       0.28       0.00       0.28        0.11     0.02   0.109
  4                          2.60       0.00       0.64       0.41       0.32       0.00       0.32        0.03     0.00   0.121
  5                          2.60       0.00       0.57       0.66       0.27       0.00       0.27        0.03     0.01   0.105
  6                          2.60       0.00       0.55       0.75       0.27       0.00       0.27        0.03     0.00   0.104
  7                          2.60       0.00       0.57       0.67       0.24       0.00       0.24        0.10     0.02   0.091
  8                          2.60       0.00       0.72       0.15       0.32       0.00       0.32        0.04     0.01   0.124
  9                          2.60       0.00       0.74       0.07       0.34       0.00       0.34        0.04     0.01   0.132
  10                         2.60       0.00       0.64       0.42       0.29       0.00       0.29        0.07     0.01   0.113
  11                         2.60       0.00       0.69       0.25       0.30       0.00       0.30        0.15     0.02   0.117
  12                         2.60       0.00       0.54       0.75       0.25       0.00       0.25        0.12     0.02   0.094
  13                         2.60       0.00       0.68       0.28       0.30       0.00       0.30        0.14     0.02   0.116
  14                         2.60       0.00       0.68       0.28       0.32       0.00       0.32        0.06     0.01   0.122
  15                         2.60       0.00       0.63       0.46       0.28       0.00       0.28        0.10     0.02   0.109
  16                         2.60       0.00       0.65       0.38       0.29       0.00       0.29        0.09     0.01   0.111
  17                         2.60       0.00       0.61       0.52       0.27       0.00       0.27        0.11     0.02   0.106
  18                         2.60       0.00       0.70       0.20       0.31       0.00       0.31        0.13     0.02   0.119
  19                         2.60       0.00       0.70       0.21       0.30       0.00       0.30        0.07     0.01   0.117
  20                         2.60       0.00       0.70       0.23       0.28       0.00       0.28        0.15     0.02   0.109
  21                         2.60       0.00       0.74       0.08       0.33       0.00       0.33        0.10     0.02   0.126
  22                         2.60       0.00       0.73       0.12       0.32       0.00       0.32        0.04     0.01   0.121
  23                         2.60       0.00       0.67       0.32       0.29       0.00       0.29        0.16     0.02   0.110
  24                         2.60       0.00       0.65       0.40       0.27       0.00       0.27        0.05     0.01   0.105
  25                         2.60       0.00       0.69       0.24       0.32       0.00       0.32        0.06     0.01   0.122
  26                         2.60       0.00       0.59       0.59       0.24       0.00       0.24        0.08     0.01   0.092
  27                         2.60       0.00       0.71       0.19       0.29       0.00       0.29        0.12     0.02   0.111
  28                         2.60       0.00       0.72       0.14       0.31       0.00       0.31        0.14     0.02   0.117
  29                         2.60       0.00       0.65       0.40       0.30       0.00       0.30        0.07     0.01   0.116
  30                         2.60       0.00       0.74       0.09       0.36       0.00       0.36        0.03     0.00   0.139
  31                         2.60       0.00       0.75       0.05       0.34       0.00       0.34        0.07     0.01   0.129
  32                         2.60       0.00       0.73       0.12       0.32       0.00       0.32        0.14     0.02   0.123
  33                         2.60       0.00       0.74       0.08       0.32       0.00       0.32        0.11     0.02   0.123
  34                         2.60       0.00       0.69       0.26       0.30       0.00       0.30        0.09     0.01   0.117
  35                         2.60       0.00       0.71       0.20       0.31       0.00       0.31        0.13     0.02   0.120
  36                         2.60       0.00       0.58       0.62       0.26       0.00       0.26        0.10     0.02   0.100
  37                         2.60       0.00       0.72       0.14       0.32       0.00       0.32        0.07     0.01   0.122
  38                         2.60       0.00       0.68       0.29       0.30       0.00       0.30        0.12     0.02   0.116
  39                         2.60       0.00       0.61       0.52       0.28       0.00       0.28        0.12     0.02   0.107
  40                         2.60       0.00       0.68       0.28       0.30       0.00       0.30        0.07     0.01   0.116
  41                         2.60       0.00       0.70       0.23       0.32       0.00       0.32        0.06     0.01   0.124
  42                         2.60       0.00       0.70       0.23       0.29       0.00       0.29        0.07     0.01   0.112
  43                         2.60       0.00       0.59       0.61       0.24       0.00       0.24        0.19     0.03   0.093
  44                         2.60       0.00       0.62       0.47       0.26       0.00       0.26        0.13     0.02   0.101
  45                         2.60       0.00       0.59       0.60       0.25       0.00       0.25        0.18     0.03   0.096
  46                         2.60       0.00       0.57       0.67       0.26       0.00       0.26        0.13     0.02   0.100
  47                         2.60       0.00       0.60       0.57       0.25       0.00       0.25        0.30     0.04   0.098
  48                         2.60       0.00       0.71       0.18       0.29       0.00       0.29        0.17     0.02   0.111
  49                         2.60       0.00       0.65       0.39       0.26       0.00       0.26        0.18     0.03   0.102
  50                         2.60       0.00       0.72       0.15       0.28       0.00       0.28        0.11     0.01   0.107
  51                         2.60       0.00       0.69       0.25       0.27       0.00       0.27        0.05     0.01   0.104
  52                         2.60       0.00       0.34       1.46       0.16       0.00       0.16        0.17     0.03   0.062
  53                         2.60       0.00       0.49       0.95       0.22       0.00       0.22        0.24     0.04   0.085
  54                         2.60       0.00       0.60       0.56       0.27       0.00       0.27        0.07     0.01   0.104
  55                         2.60       0.00       0.34       1.43       0.16       0.00       0.16        0.13     0.02   0.063
  56                         2.60       0.00       0.13       2.16       0.07       0.00       0.07        0.06     0.01   0.026
  57                         2.60       0.00       0.68       0.29       0.28       0.00       0.28        0.23     0.03   0.106
  58                         2.60       0.00       0.63       0.46       0.28       0.00       0.28        0.05     0.01   0.109
  59                         2.60       0.00       0.61       0.51       0.30       0.00       0.30        0.04     0.01   0.115
  60                         2.60       0.00       0.23       1.82       0.11       0.00       0.11        0.03     0.01   0.044
  61                         2.60       0.00       0.36       1.38       0.17       0.00       0.17        0.06     0.01   0.063
  62                         2.60       0.00       0.50       0.90       0.21       0.00       0.21        0.25     0.04   0.081
  63                         2.60       0.00       0.68       0.29       0.26       0.00       0.26        0.51     0.07   0.102
  64                         2.60       0.00       0.51       0.87       0.22       0.00       0.22        0.05     0.01   0.085
  65                         2.60       0.00       0.69       0.25       0.27       0.00       0.27        0.18     0.03   0.105
  66                         2.60       0.00       0.54       0.75       0.23       0.00       0.23        0.06     0.01   0.087
  67                         2.60       0.00       0.51       0.87       0.23       0.00       0.23        0.07     0.01   0.087
  68                         2.60       0.00       0.61       0.53       0.28       0.00       0.28        0.03     0.01   0.108
  69                         2.60       0.00       0.36       1.38       0.17       0.00       0.17        0.06     0.01   0.066
  70                         2.60       0.00       0.50       0.89       0.22       0.00       0.22        0.18     0.03   0.085
  71                         2.60       0.00       0.62       0.49       0.29       0.00       0.29        0.04     0.01   0.110
  72                         2.60       0.00       0.66       0.37       0.30       0.00       0.30        0.04     0.01   0.115
  73                         2.60       0.00       0.59       0.58       0.28       0.00       0.28        0.05     0.01   0.109
  74                         2.60       0.00       0.57       0.68       0.26       0.00       0.26        0.06     0.01   0.102
  75                         2.60       0.00       0.63       0.46       0.29       0.00       0.29        0.04     0.01   0.112
  76                         2.60       0.00       0.66       0.35       0.31       0.00       0.31        0.03     0.00   0.120
  77                         2.60       0.00       0.71       0.20       0.32       0.00       0.32        0.03     0.01   0.123
  78                         2.60       0.00       0.68       0.28       0.30       0.00       0.30        0.03     0.01   0.117
  79                         2.60       0.00       0.30       1.58       0.14       0.00       0.14        0.15     0.02   0.054
  80                         2.60       0.00       0.56       0.69       0.24       0.00       0.24        0.15     0.02   0.093
  81                         2.60       0.00       0.57       0.66       0.24       0.00       0.24        0.10     0.02   0.092
  82                         2.60       0.00       0.55       0.74       0.23       0.00       0.23        0.21     0.03   0.088
  83                         2.60       0.00       0.68       0.27       0.32       0.00       0.32        0.04     0.01   0.121
  84                         2.60       0.00       0.65       0.40       0.29       0.00       0.29        0.03     0.01   0.111
  85                         2.60       0.00       0.76       0.02       0.36       0.00       0.36        0.03     0.01   0.140
  86                         2.60       0.00       0.70       0.22       0.32       0.00       0.32        0.05     0.01   0.122
  87                         2.60       0.00       0.75       0.06       0.33       0.00       0.33        0.04     0.01   0.127
  88                         2.60       0.00       0.67       0.32       0.31       0.00       0.31        0.03     0.00   0.119
  89                         2.60       0.00       0.70       0.21       0.32       0.00       0.32        0.06     0.01   0.125
  90                         2.60       0.00       0.76       0.00       0.38       0.00       0.38        0.00     0.00   0.147
  91                         2.60       0.00       0.64       0.44       0.26       0.00       0.26        0.06     0.01   0.100
  92                         2.60       0.00       0.70       0.20       0.32       0.00       0.32        0.04     0.01   0.123
  93                         2.60       0.00       0.57       0.65       0.25       0.00       0.25        0.13     0.02   0.097
  94                         2.60       0.00       0.52       0.84       0.25       0.00       0.25        0.02     0.00   0.096
  95                         2.60       0.00       0.76       0.00       0.37       0.00       0.37        0.01     0.00   0.140
  96                         2.60       0.00       0.62       0.50       0.29       0.00       0.29        0.04     0.01   0.111
  97                         2.60       0.00       0.75       0.06       0.34       0.00       0.34        0.03     0.01   0.132
  98                         2.60       0.00       0.62       0.49       0.29       0.00       0.29        0.04     0.01   0.113
  99                         2.60       0.00       0.31       1.56       0.14       0.00       0.14        0.05     0.01   0.056
  100                        2.60       0.00       0.34       1.44       0.16       0.00       0.16        0.04     0.01   0.062
  101                        2.60       0.00       0.35       1.41       0.16       0.00       0.16        0.08     0.01   0.060
  102                        2.60       0.00       0.57       0.66       0.26       0.00       0.26        0.06     0.01   0.099
  103                        2.60       0.00       0.19       1.95       0.10       0.00       0.10        0.04     0.01   0.040
  104                        2.60       0.00       0.13       2.16       0.07       0.00       0.07        0.07     0.01   0.026
  105                        2.60       0.00       0.63       0.46       0.30       0.00       0.30        0.04     0.01   0.114
  106                        2.60       0.00       0.34       1.44       0.16       0.00       0.16        0.04     0.01   0.062
  
  
  ******************
  Node Depth Summary
  ******************
  
  ---------------------------------------------------------------------------------
                                 Average  Maximum  Maximum  Time of Max    Reported
                                   Depth    Depth      HGL   Occurrence   Max Depth
  Node                 Type       Meters   Meters   Meters  days hr:min      Meters
  ---------------------------------------------------------------------------------
  jd1                  JUNCTION     0.01     0.03   273.03     0  03:04        0.03
  jd2                  JUNCTION     0.03     0.06   267.06     0  03:07        0.06
  jd3                  JUNCTION     0.28     0.66   263.66     0  06:59        0.56
  jd4                  JUNCTION     0.04     0.08   267.08     0  03:06        0.07
  jd5                  JUNCTION     0.01     0.02   274.02     0  03:01        0.02
  jd6                  JUNCTION     0.01     0.03   275.03     0  03:01        0.03
  jd7                  JUNCTION     0.03     0.06   264.16     0  06:59        0.06
  jd8                  JUNCTION     0.15     0.28   264.28     0  06:59        0.27
  jd9                  JUNCTION     0.04     0.10   265.10     0  06:59        0.09
  jd10                 JUNCTION     0.23     0.49   270.49     0  06:59        0.41
  jd11                 JUNCTION     0.01     0.02   282.02     0  03:01        0.02
  jd12                 JUNCTION     0.37     3.00   272.00     0  06:50        0.53
  jd13                 JUNCTION     0.01     0.03   289.03     0  03:01        0.03
  jd14                 JUNCTION     0.02     0.05   280.05     0  03:02        0.05
  jd15                 JUNCTION     0.03     0.05   278.05     0  03:11        0.05
  jd16                 JUNCTION     0.03     0.06   274.06     0  03:05        0.06
  jd17                 JUNCTION     0.07     0.13   275.93     0  03:23        0.13
  jd18                 JUNCTION     0.02     0.05   279.05     0  03:04        0.05
  jd19                 JUNCTION     0.04     0.10   267.10     0  06:59        0.08
  jd20                 JUNCTION     0.02     0.06   273.06     0  06:59        0.04
  jd21                 JUNCTION     0.30     0.71   270.71     0  06:59        0.59
  jd22                 JUNCTION     0.03     0.07   272.07     0  03:02        0.07
  jd23                 JUNCTION     0.02     0.05   278.05     0  03:04        0.05
  jd24                 JUNCTION     0.01     0.03   285.03     0  03:01        0.03
  jd25                 JUNCTION     0.02     0.05   279.05     0  03:03        0.05
  jd26                 JUNCTION     0.02     0.05   285.05     0  03:03        0.05
  jd27                 JUNCTION     0.02     0.04   291.04     0  03:04        0.04
  jd28                 JUNCTION     1.31     3.00   290.00     0  04:10        3.00
  jd29                 JUNCTION     0.01     0.02   299.02     0  03:01        0.02
  jd30                 JUNCTION     0.01     0.03   290.03     0  03:06        0.03
  jd31                 JUNCTION     0.02     0.04   272.04     0  03:11        0.04
  jd32                 JUNCTION     1.22     3.00   275.00     0  04:31        3.00
  jd33                 JUNCTION     0.02     0.04   289.04     0  03:01        0.04
  jd34                 JUNCTION     0.02     0.05   294.05     0  03:01        0.05
  jd35                 JUNCTION     1.76     3.00   292.00     0  03:12        3.00
  jd36                 JUNCTION     0.03     0.06   299.06     0  03:06        0.06
  jd37                 JUNCTION     0.03     0.06   303.06     0  03:02        0.06
  jd38                 JUNCTION     0.03     0.07   297.07     0  03:06        0.07
  jd39                 JUNCTION     0.37     0.84   294.84     0  06:59        0.72
  jd40                 JUNCTION     0.03     0.07   299.07     0  03:11        0.06
  jd41                 JUNCTION     0.26     0.55   293.55     0  06:59        0.48
  jd42                 JUNCTION     0.02     0.04   305.04     0  03:04        0.04
  jd43                 JUNCTION     0.04     0.10   297.10     0  03:04        0.09
  jd44                 JUNCTION     0.05     0.10   283.10     0  03:10        0.09
  jd45                 JUNCTION     0.80     3.00   282.00     0  06:08        3.00
  jd46                 JUNCTION     0.03     0.05   275.05     0  03:18        0.05
  jd47                 JUNCTION     0.02     0.04   315.04     0  03:01        0.04
  jd48                 JUNCTION     0.01     0.03   325.03     0  03:01        0.03
  jd49                 JUNCTION     0.03     0.05   289.05     0  03:03        0.05
  jd50                 JUNCTION     1.54     3.00   278.00     0  03:41        3.00
  jd51                 JUNCTION     0.19     0.38   310.38     0  06:59        0.33
  jd52                 JUNCTION     0.02     0.05   323.05     0  03:12        0.04
  jd53                 JUNCTION     0.03     0.07   322.07     0  03:10        0.07
  jd54                 JUNCTION     0.03     0.06   326.06     0  03:06        0.06
  jd55                 JUNCTION     0.18     0.38   322.38     0  06:59        0.33
  jd56                 JUNCTION     0.01     0.03   327.03     0  03:02        0.03
  jd59                 JUNCTION     0.18     0.35   318.15     0  06:59        0.31
  jd60                 JUNCTION     0.36     3.00   319.00     0  06:51        0.53
  jd61                 JUNCTION     0.01     0.03   329.03     0  03:01        0.03
  jd62                 JUNCTION     0.01     0.02   335.02     0  03:00        0.02
  jd63                 JUNCTION     0.01     0.02   324.02     0  03:01        0.02
  jd64                 JUNCTION     0.06     0.15   318.15     0  06:59        0.11
  jd65                 JUNCTION     0.05     0.10   304.10     0  03:02        0.10
  jd66                 JUNCTION     0.27     0.57   301.57     0  06:59        0.48
  jd69                 JUNCTION     0.02     0.05   333.05     0  03:01        0.05
  jd79                 JUNCTION     0.57     2.12   273.12     0  06:00        2.05
  jd80                 JUNCTION     0.09     0.19   276.19     0  03:08        0.18
  jd81                 JUNCTION     0.02     0.03   288.03     0  03:00        0.03
  jd83                 JUNCTION     1.76     3.00   323.00     0  03:13        3.00
  jd84                 JUNCTION     0.02     0.05   323.05     0  03:01        0.05
  jd85                 JUNCTION     0.22     0.44   321.44     0  06:59        0.37
  jd87                 JUNCTION     0.26     0.56   319.56     0  06:59        0.46
  jd89                 JUNCTION     0.02     0.03   324.03     0  03:02        0.03
  jd90                 JUNCTION     0.01     0.03   328.03     0  03:01        0.03
  jd92                 JUNCTION     0.01     0.03   326.03     0  03:01        0.03
  jd93                 JUNCTION     0.04     0.08   324.08     0  03:12        0.08
  jd94                 JUNCTION     0.02     0.05   326.25     0  03:10        0.05
  jd95                 JUNCTION     0.03     0.07   327.07     0  03:03        0.07
  jd96                 JUNCTION     0.33     0.69   305.69     0  06:59        0.57
  jd97                 JUNCTION     0.03     0.07   327.27     0  03:00        0.07
  jd98                 JUNCTION     0.02     0.05   329.05     0  03:01        0.05
  jd99                 JUNCTION     0.19     0.40   324.40     0  06:59        0.34
  jd101                JUNCTION     0.01     0.03   321.03     0  03:02        0.03
  jd102                JUNCTION     0.02     0.05   324.05     0  03:01        0.05
  jd103                JUNCTION     0.01     0.03   318.03     0  03:00        0.03
  jd106                JUNCTION     0.19     0.40   284.40     0  06:59        0.34
  jd107                JUNCTION     0.02     0.05   332.05     0  03:02        0.05
  jd108                JUNCTION     0.43     0.92   326.92     0  06:59        0.77
  jd109                JUNCTION     0.02     0.04   343.04     0  03:00        0.04
  jd110                JUNCTION     0.28     0.56   324.56     0  06:59        0.47
  jd111                JUNCTION     0.01     0.02   344.02     0  03:01        0.02
  jd112                JUNCTION     0.01     0.02   334.02     0  03:01        0.02
  jd113                JUNCTION     0.01     0.03   348.03     0  03:00        0.03
  jd114                JUNCTION     0.61     2.38   316.38     0  06:59        1.71
  jd117                JUNCTION     0.04     0.32   316.32     0  06:59        0.06
  jd118                JUNCTION     0.01     0.02   330.02     0  03:00        0.02
  jd120                JUNCTION     0.02     0.04   327.04     0  03:01        0.04
  jd121                JUNCTION     0.02     0.04   320.04     0  03:01        0.04
  jd122                JUNCTION     0.35     0.76   273.76     0  06:59        0.66
  jd123                JUNCTION     0.23     0.56   273.76     0  06:59        0.47
  jd124                JUNCTION     1.97     3.00   271.00     0  02:49        3.00
  jd125                JUNCTION     0.04     0.08   275.08     0  03:10        0.07
  jd126                JUNCTION     1.78     3.00   275.00     0  03:10        3.00
  jd135                JUNCTION     0.01     0.03   289.03     0  03:00        0.03
  jd136                JUNCTION     0.03     0.06   341.06     0  03:01        0.06
  psk1                 OUTFALL      0.01     0.02   279.02     0  03:01        0.02
  psk2                 OUTFALL      0.01     0.03   270.03     0  03:06        0.03
  psk3                 OUTFALL      0.03     0.06   271.06     0  03:05        0.06
  psk4                 OUTFALL      0.00     0.00   280.00     0  00:00        0.00
  psk5                 OUTFALL      0.01     0.03   263.03     0  03:04        0.03
  psk6                 OUTFALL      0.01     0.02   259.02     0  03:01        0.02
  psk7                 OUTFALL      0.03     0.06   262.06     0  06:59        0.06
  psk8                 OUTFALL      0.00     0.00   317.00     0  00:00        0.00
  
  
  *******************
  Node Inflow Summary
  *******************
  
  -------------------------------------------------------------------------------------------------
                                  Maximum  Maximum                  Lateral       Total        Flow
                                  Lateral    Total  Time of Max      Inflow      Inflow     Balance
                                   Inflow   Inflow   Occurrence      Volume      Volume       Error
  Node                 Type           CMS      CMS  days hr:min    10^6 ltr    10^6 ltr     Percent
  -------------------------------------------------------------------------------------------------
  jd1                  JUNCTION     0.010    0.014     0  03:00      0.0585      0.0916       5.638
  jd2                  JUNCTION     0.012    0.016     0  03:00      0.0824       0.113       8.261
  jd3                  JUNCTION     0.015    0.046     0  03:02       0.102       0.329  328720.335 ltr
  jd4                  JUNCTION     0.018    0.020     0  03:00        0.12       0.135      10.261
  jd5                  JUNCTION     0.007    0.011     0  03:00      0.0394      0.0688       2.377
  jd6                  JUNCTION     0.007    0.007     0  03:00       0.044       0.044       3.443
  jd7                  JUNCTION     0.004    0.033     0  06:59      0.0245       0.253       4.817
  jd8                  JUNCTION     0.006    0.038     0  06:59      0.0332       0.213      45.690
  jd9                  JUNCTION     0.004    0.037     0  06:59      0.0259       0.195       9.183
  jd10                 JUNCTION     0.011    0.014     0  03:00      0.0647      0.0812   81174.397 ltr
  jd11                 JUNCTION     0.015    0.015     0  03:00       0.094       0.094       4.774
  jd12                 JUNCTION     0.011    0.023     0  03:00      0.0691       0.146    1478.769
  jd13                 JUNCTION     0.020    0.020     0  03:00       0.125       0.125       3.301
  jd14                 JUNCTION     0.022    0.024     0  03:00       0.141       0.159       6.379
  jd15                 JUNCTION     0.010    0.020     0  03:00      0.0629       0.127      15.918
  jd16                 JUNCTION     0.012    0.035     0  03:00      0.0687       0.233       6.600
  jd17                 JUNCTION     0.022    0.068     0  03:01       0.136       0.466      18.334
  jd18                 JUNCTION     0.018    0.026     0  03:00       0.111       0.158       9.155
  jd19                 JUNCTION     0.017    0.036     0  06:59       0.104       0.183       7.879
  jd20                 JUNCTION     0.013    0.035     0  06:59      0.0837       0.139      15.672
  jd21                 JUNCTION     0.006    0.040     0  03:02       0.038       0.294  293897.738 ltr
  jd22                 JUNCTION     0.011    0.023     0  03:00      0.0672       0.148       2.679
  jd23                 JUNCTION     0.011    0.029     0  03:00      0.0677       0.179       5.378
  jd24                 JUNCTION     0.018    0.018     0  03:00       0.113       0.113       4.588
  jd25                 JUNCTION     0.014    0.020     0  03:00       0.087       0.124       7.039
  jd26                 JUNCTION     0.020    0.032     0  03:00       0.127       0.204       6.372
  jd27                 JUNCTION     0.019    0.029     0  03:00       0.125       0.199       5.985
  jd28                 JUNCTION     0.024    0.033     0  03:00       0.164       0.227     144.083
  jd29                 JUNCTION     0.012    0.012     0  03:00      0.0724      0.0724       2.825
  jd30                 JUNCTION     0.011    0.026     0  03:01      0.0702        0.18       3.650
  jd31                 JUNCTION     0.007    0.011     0  03:00      0.0474      0.0886       7.994
  jd32                 JUNCTION     0.016    0.054     0  03:02         0.1       0.375     198.454
  jd33                 JUNCTION     0.016    0.027     0  03:00       0.101       0.166       3.964
  jd34                 JUNCTION     0.021    0.021     0  03:00       0.127       0.127       3.314
  jd35                 JUNCTION     0.019    0.054     0  03:00       0.115       0.363      55.411
  jd36                 JUNCTION     0.026    0.041     0  03:00       0.175       0.284       7.363
  jd37                 JUNCTION     0.028    0.028     0  03:00       0.188       0.188       4.415
  jd38                 JUNCTION     0.027    0.043     0  03:00       0.177       0.286       9.666
  jd39                 JUNCTION     0.020    0.059     0  03:02       0.126       0.428  428363.558 ltr
  jd40                 JUNCTION     0.031    0.044     0  03:00       0.206       0.313      10.223
  jd41                 JUNCTION     0.023    0.071     0  03:01       0.148       0.502  502169.574 ltr
  jd42                 JUNCTION     0.025    0.029     0  03:00        0.18         0.2       7.113
  jd43                 JUNCTION     0.038    0.063     0  03:00       0.231       0.385      11.323
  jd44                 JUNCTION     0.045    0.107     0  03:00        0.29       0.693       9.926
  jd45                 JUNCTION     0.014    0.057     0  03:07       0.107       0.403     404.765
  jd46                 JUNCTION     0.007    0.007     0  03:00      0.0494      0.0494      20.003
  jd47                 JUNCTION     0.029    0.029     0  03:00       0.178       0.178       4.336
  jd48                 JUNCTION     0.009    0.009     0  03:00      0.0541      0.0541       5.318
  jd49                 JUNCTION     0.033    0.033     0  03:00       0.224       0.224       5.596
  jd50                 JUNCTION     0.037    0.123     0  03:01       0.241       0.878      95.288
  jd51                 JUNCTION     0.009    0.039     0  03:00      0.0558       0.239  239175.564 ltr
  jd52                 JUNCTION     0.016    0.030     0  03:00       0.102       0.211       7.433
  jd53                 JUNCTION     0.008    0.037     0  03:04      0.0553       0.239       5.533
  jd54                 JUNCTION     0.006    0.026     0  03:00      0.0335       0.157       7.463
  jd55                 JUNCTION     0.010    0.032     0  03:00      0.0612       0.207  206969.747 ltr
  jd56                 JUNCTION     0.006    0.012     0  03:00       0.038      0.0711       5.613
  jd59                 JUNCTION     0.006    0.026     0  03:01      0.0366       0.148    3352.845
  jd60                 JUNCTION     0.011    0.022     0  03:00      0.0644       0.135    1559.321
  jd61                 JUNCTION     0.011    0.013     0  03:00      0.0713       0.081       4.495
  jd62                 JUNCTION     0.005    0.005     0  03:00       0.032       0.032       2.061
  jd63                 JUNCTION     0.007    0.007     0  03:00      0.0411      0.0411       3.343
  jd64                 JUNCTION     0.006    0.014     0  03:00      0.0339      0.0866      57.540
  jd65                 JUNCTION     0.070    0.070     0  03:00       0.503       0.503       4.493
  jd66                 JUNCTION     0.012    0.036     0  03:00      0.0751       0.217  216816.983 ltr
  jd69                 JUNCTION     0.025    0.026     0  03:00       0.146        0.15       6.156
  jd79                 JUNCTION     0.022    0.038     0  03:00       0.134       0.233     317.478
  jd80                 JUNCTION     0.023    0.033     0  03:00       0.147       0.205      15.307
  jd81                 JUNCTION     0.017    0.017     0  03:00        0.11        0.11       1.412
  jd83                 JUNCTION     0.022    0.030     0  03:00       0.126       0.175      91.232
  jd84                 JUNCTION     0.028    0.028     0  03:00       0.162       0.162       4.671
  jd85                 JUNCTION     0.006    0.010     0  03:00      0.0374      0.0605   60542.481 ltr
  jd87                 JUNCTION     0.005    0.011     0  03:00      0.0295      0.0676   67563.931 ltr
  jd89                 JUNCTION     0.005    0.005     0  03:00      0.0326      0.0326       6.084
  jd90                 JUNCTION     0.006    0.006     0  03:00      0.0343      0.0343       4.934
  jd92                 JUNCTION     0.005    0.005     0  03:00      0.0291      0.0291       3.463
  jd93                 JUNCTION     0.009    0.018     0  03:00      0.0568       0.117       8.294
  jd94                 JUNCTION     0.001    0.011     0  03:03      0.0043      0.0661       9.318
  jd95                 JUNCTION     0.001    0.011     0  03:00      0.0078      0.0674       9.103
  jd96                 JUNCTION     0.011    0.014     0  03:00      0.0637       0.082   81999.748 ltr
  jd97                 JUNCTION     0.010    0.010     0  03:00      0.0609      0.0609       2.189
  jd98                 JUNCTION     0.006    0.006     0  03:00      0.0345      0.0345       4.137
  jd99                 JUNCTION     0.003    0.006     0  03:00      0.0172      0.0353   35334.646 ltr
  jd101                JUNCTION     0.008    0.014     0  03:00      0.0459      0.0864       3.651
  jd102                JUNCTION     0.007    0.007     0  03:00      0.0427      0.0427       5.316
  jd103                JUNCTION     0.005    0.005     0  03:00      0.0306      0.0306       1.871
  jd106                JUNCTION     0.004    0.021     0  03:00      0.0254       0.129  129268.419 ltr
  jd107                JUNCTION     0.006    0.019     0  03:00      0.0353       0.113       7.017
  jd108                JUNCTION     0.007    0.010     0  03:00      0.0386      0.0601   60104.737 ltr
  jd109                JUNCTION     0.010    0.010     0  03:00      0.0615      0.0615       1.671
  jd110                JUNCTION     0.009    0.013     0  03:00      0.0538      0.0766   76562.820 ltr
  jd111                JUNCTION     0.007    0.007     0  03:00      0.0408      0.0408       3.290
  jd112                JUNCTION     0.008    0.022     0  03:00      0.0458       0.129       2.649
  jd113                JUNCTION     0.006    0.006     0  03:00      0.0367      0.0367       0.972
  jd114                JUNCTION     0.006    0.058     0  03:04      0.0377       0.351     869.450
  jd117                JUNCTION     0.005    0.042     0  06:59      0.0336       0.146      67.442
  jd118                JUNCTION     0.006    0.006     0  03:00       0.033       0.033       0.806
  jd120                JUNCTION     0.006    0.006     0  03:00      0.0392      0.0392       3.094
  jd121                JUNCTION     0.007    0.007     0  03:00      0.0466      0.0466       3.856
  jd122                JUNCTION     0.018    0.086     0  03:12       0.113       0.535    4927.930
  jd123                JUNCTION     0.019    0.081     0  03:09       0.117       0.668     299.087
  jd124                JUNCTION     0.025    0.061     0  03:02        0.16       0.439      14.801
  jd125                JUNCTION     0.022    0.068     0  03:06        0.15       0.484       4.088
  jd126                JUNCTION     0.031    0.043     0  03:00       0.213       0.299      50.300
  jd135                JUNCTION     0.010    0.010     0  03:00      0.0624      0.0624       2.667
  jd136                JUNCTION     0.009    0.015     0  03:00      0.0526       0.089       7.543
  psk1                 OUTFALL      0.000    0.010     0  03:01           0      0.0631       0.000
  psk2                 OUTFALL      0.000    0.018     0  03:06           0       0.128       0.000
  psk3                 OUTFALL      0.000    0.033     0  03:05           0       0.218       0.000
  psk4                 OUTFALL      0.000    0.000     0  00:00           0           0       0.000 ltr
  psk5                 OUTFALL      0.000    0.008     0  03:04           0      0.0563       0.000
  psk6                 OUTFALL      0.000    0.008     0  03:01           0      0.0517       0.000
  psk7                 OUTFALL      0.000    0.030     0  06:59           0        0.24       0.000
  psk8                 OUTFALL      0.000    0.000     0  00:00           0           0       0.000 ltr
  
  
  **********************
  Node Surcharge Summary
  **********************
  
  Surcharging occurs when water rises above the top of the highest conduit.
  ---------------------------------------------------------------------
                                               Max. Height   Min. Depth
                                   Hours       Above Crown    Below Rim
  Node                 Type      Surcharged         Meters       Meters
  ---------------------------------------------------------------------
  jd12                 JUNCTION        0.20          2.400        0.000
  jd28                 JUNCTION        2.91          2.400        0.000
  jd32                 JUNCTION        2.58          2.200        0.000
  jd35                 JUNCTION        3.81          2.400        0.000
  jd45                 JUNCTION        0.99          2.000        0.000
  jd50                 JUNCTION        3.33          2.200        0.000
  jd60                 JUNCTION        0.18          2.400        0.000
  jd79                 JUNCTION        1.23          1.516        0.884
  jd83                 JUNCTION        3.79          2.400        0.000
  jd114                JUNCTION        0.55          1.375        0.625
  jd124                JUNCTION        4.18          2.400        0.000
  jd126                JUNCTION        3.84          2.400        0.000
  
  
  *********************
  Node Flooding Summary
  *********************
  
  Flooding refers to all water that overflows a node, whether it ponds or not.
  --------------------------------------------------------------------------
                                                             Total   Maximum
                                 Maximum   Time of Max       Flood    Ponded
                        Hours       Rate    Occurrence      Volume     Depth
  Node                 Flooded       CMS   days hr:min    10^6 ltr    Meters
  --------------------------------------------------------------------------
  jd12                    0.16     0.017      0  06:59       0.009     0.000
  jd28                    2.83     0.025      0  06:59       0.093     0.000
  jd32                    2.48     0.041      0  06:59       0.126     0.000
  jd35                    3.80     0.046      0  03:12       0.234     0.000
  jd45                    0.86     0.043      0  06:59       0.080     0.000
  jd50                    3.31     0.097      0  06:59       0.450     0.000
  jd60                    0.15     0.016      0  06:59       0.008     0.000
  jd83                    3.78     0.021      0  06:59       0.092     0.000
  jd124                   4.18     0.061      0  03:02       0.383     0.000
  jd126                   3.83     0.036      0  03:10       0.199     0.000
  
  
  ***********************
  Outfall Loading Summary
  ***********************
  
  -----------------------------------------------------------
                         Flow       Avg       Max       Total
                         Freq      Flow      Flow      Volume
  Outfall Node           Pcnt       CMS       CMS    10^6 ltr
  -----------------------------------------------------------
  psk1                  85.81     0.004     0.010       0.063
  psk2                  83.65     0.007     0.018       0.128
  psk3                  87.00     0.012     0.033       0.218
  psk4                   0.00     0.000     0.000       0.000
  psk5                  85.42     0.003     0.008       0.056
  psk6                  84.04     0.003     0.008       0.052
  psk7                  86.80     0.013     0.030       0.240
  psk8                   0.00     0.000     0.000       0.000
  -----------------------------------------------------------
  System                64.09     0.042     0.000       0.758
  
  
  ********************
  Link Flow Summary
  ********************
  
  -----------------------------------------------------------------------------
                                 Maximum  Time of Max   Maximum    Max/    Max/
                                  |Flow|   Occurrence   |Veloc|    Full    Full
  Link                 Type          CMS  days hr:min     m/sec    Flow   Depth
  -----------------------------------------------------------------------------
  GQ1                  CONDUIT     0.005     0  03:10      0.61    0.01    0.07
  GQ2                  CONDUIT     0.011     0  03:11      0.65    0.01    0.06
  GQ3                  CONDUIT     0.010     0  03:01      1.78    0.00    0.02
  GQ4                  CONDUIT     0.017     0  03:06      0.43    0.03    0.55
  GQ5                  CONDUIT     0.015     0  03:07      0.34    0.01    0.44
  GQ6                  CONDUIT     0.004     0  03:04      0.41    0.00    0.06
  GQ7                  CONDUIT     0.050     0  03:10      1.64    0.03    0.11
  GQ8                  CONDUIT     0.008     0  03:03      0.36    0.01    0.09
  GQ9                  CONDUIT     0.022     0  03:03      0.34    0.01    0.53
  GQ10                 CONDUIT     0.066     0  03:03      0.93    0.06    0.57
  GQ11                 CONDUIT     0.003     0  03:01      0.61    0.00    0.05
  GQ12                 CONDUIT     0.003     0  03:01      0.30    0.00    0.13
  GQ13                 CONDUIT     0.003     0  03:01      0.23    0.00    0.06
  GQ14                 CONDUIT     0.001     0  03:01      0.27    0.00    0.03
  GQ15                 CONDUIT     0.004     0  03:01      1.39    0.01    0.08
  GQ16                 CONDUIT     0.016     0  03:06      1.13    0.01    0.05
  GQ17                 CONDUIT     0.006     0  03:01      0.73    0.00    0.05
  GQ18                 CONDUIT     0.021     0  06:59      0.28    0.10    0.21
  GQ19                 CONDUIT     0.008     0  03:01      0.89    0.00    0.04
  GQ20                 CONDUIT     0.002     0  03:01      0.17    0.00    0.04
  GQ21                 CONDUIT     0.006     0  03:01      0.53    0.00    0.04
  GQ22                 CONDUIT     0.006     0  03:01      0.56    0.00    0.04
  GQ23                 CONDUIT     0.010     0  03:03      0.67    0.00    0.05
  GQ24                 CONDUIT     0.014     0  03:04      0.26    0.01    0.53
  GQ25                 CONDUIT     0.011     0  03:01      1.14    0.01    0.07
  GQ26                 CONDUIT     0.009     0  03:02      0.88    0.01    0.08
  GQ27                 CONDUIT     0.013     0  03:04      0.93    0.01    0.10
  GQ28                 CONDUIT     0.009     0  06:59      0.11    0.01    0.48
  GQ29                 CONDUIT     0.010     0  03:11      0.22    0.00    0.46
  GQ30                 CONDUIT     0.023     0  03:02      0.67    0.03    0.55
  GQ31                 CONDUIT     0.010     0  03:01      0.25    0.01    0.53
  GQ32                 CONDUIT     0.011     0  03:06      0.96    0.02    0.08
  GQ33                 CONDUIT     0.027     0  03:06      0.31    0.02    0.55
  GQ34                 CONDUIT     0.005     0  03:04      0.50    0.01    0.08
  GQ35                 CONDUIT     0.011     0  03:02      0.76    0.02    0.10
  GQ36                 CONDUIT     0.016     0  03:02      0.98    0.02    0.11
  GQ37                 CONDUIT     0.007     0  03:05      0.13    0.01    0.53
  GQ38                 CONDUIT     0.003     0  03:06      0.05    0.00    0.52
  GQ39                 CONDUIT     0.012     0  03:03      0.58    0.02    0.15
  GQ40                 CONDUIT     0.008     0  03:05      0.75    0.01    0.08
  GQ41                 CONDUIT     0.022     0  03:06      0.33    0.01    0.45
  GQ42                 CONDUIT     0.020     0  03:12      0.29    0.01    0.54
  GQ43                 CONDUIT     0.015     0  03:13      0.94    0.01    0.07
  GQ44                 CONDUIT     0.034     0  06:59      0.46    0.04    0.24
  GQ45                 CONDUIT     0.023     0  06:59      0.96    0.01    0.10
  GQ46                 CONDUIT     0.034     0  06:59      0.92    0.03    0.13
  GQ47                 CONDUIT     0.003     0  03:01      0.12    0.00    0.42
  GQ48                 CONDUIT     0.003     0  03:01      0.11    0.00    0.52
  GQ49                 CONDUIT     0.010     0  03:01      0.42    0.00    0.52
  GQ50                 CONDUIT     0.003     0  03:01      0.36    0.00    0.06
  GQ51                 CONDUIT     0.010     0  03:03      0.85    0.02    0.09
  GQ52                 CONDUIT     0.005     0  03:17      0.44    0.01    0.05
  GQ53                 CONDUIT     0.045     0  03:10      0.43    0.02    0.54
  GQ54                 CONDUIT     0.006     0  03:01      0.24    0.01    0.52
  GQ55                 CONDUIT     0.005     0  03:01      0.25    0.00    0.52
  GQ56                 CONDUIT     0.056     0  03:04      1.64    0.03    0.12
  GQ57                 CONDUIT     0.007     0  03:04      0.34    0.00    0.08
  GQ58                 CONDUIT     0.014     0  03:04      0.41    0.00    0.36
  GQ59                 CONDUIT     0.018     0  03:12      0.31    0.01    0.38
  GQ60                 CONDUIT     0.007     0  03:13      0.13    0.00    0.14
  GQ61                 CONDUIT     0.004     0  03:02      0.20    0.00    0.12
  GQ62                 CONDUIT     0.008     0  03:02      0.25    0.00    0.13
  GQ63                 CONDUIT     0.019     0  03:02      0.52    0.00    0.14
  GQ64                 CONDUIT     0.002     0  03:00      0.45    0.00    0.04
  GQ65                 CONDUIT     0.001     0  03:00      0.12    0.00    0.06
  GQ66                 CONDUIT     0.003     0  03:01      0.30    0.00    0.10
  GQ67                 CONDUIT     0.012     0  03:06      0.24    0.01    0.21
  GQ68                 CONDUIT     0.005     0  03:02      0.21    0.00    0.20
  GQ69                 CONDUIT     0.024     0  03:01      0.73    0.01    0.38
  GQ70                 CONDUIT     0.008     0  03:01      2.34    0.00    0.03
  GQ71                 CONDUIT     0.008     0  03:04      1.61    0.00    0.03
  GQ72                 CONDUIT     0.030     0  06:59      1.54    0.01    0.06
  GQ73                 CONDUIT     0.018     0  03:06      3.29    0.00    0.03
  GQ74                 CONDUIT     0.005     0  03:01      0.48    0.00    0.04
  GQ75                 CONDUIT     0.004     0  03:06      0.11    0.00    0.21
  GQ76                 CONDUIT     0.033     0  03:05      1.70    0.01    0.06
  GQ77                 CONDUIT     0.000     0  00:00      0.00    0.00    0.03
  GQ78                 CONDUIT     0.014     0  03:04      0.30    0.02    0.54
  GQ79                 CONDUIT     0.025     0  06:59      0.16    0.05    0.55
  GQ80                 CONDUIT     0.009     0  03:04      0.24    0.02    0.20
  GQ81                 CONDUIT     0.027     0  03:12      0.45    0.17    0.27
  GQ82                 CONDUIT     0.008     0  03:01      0.72    0.01    0.13
  GQ83                 CONDUIT     0.009     0  03:01      0.90    0.01    0.08
  GQ84                 CONDUIT     0.018     0  03:01      1.02    0.01    0.12
  GQ85                 CONDUIT     0.008     0  03:01      0.15    0.01    0.54
  GQ86                 CONDUIT     0.003     0  03:00      0.22    0.00    0.38
  GQ87                 CONDUIT     0.001     0  03:01      0.05    0.00    0.38
  GQ88                 CONDUIT     0.006     0  03:01      0.26    0.01    0.49
  GQ89                 CONDUIT     0.005     0  03:02      0.30    0.01    0.31
  GQ90                 CONDUIT     0.006     0  03:01      0.47    0.01    0.15
  GQ91                 CONDUIT     0.005     0  03:01      0.32    0.01    0.34
  GQ92                 CONDUIT     0.011     0  03:04      0.58    0.02    0.08
  GQ93                 CONDUIT     0.011     0  03:10      0.50    0.01    0.09
  GQ94                 CONDUIT     0.017     0  03:12      0.85    0.02    0.08
  GQ95                 CONDUIT     0.003     0  03:01      0.06    0.00    0.44
  GQ96                 CONDUIT     0.010     0  03:00      0.43    0.02    0.09
  GQ97                 CONDUIT     0.006     0  03:01      0.77    0.01    0.06
  GQ98                 CONDUIT     0.003     0  03:02      0.15    0.00    0.35
  GQ99                 CONDUIT     0.010     0  03:02      0.35    0.00    0.14
  GQ100                CONDUIT     0.007     0  03:01      0.88    0.01    0.06
  GQ101                CONDUIT     0.005     0  03:00      0.38    0.00    0.34
  GQ102                CONDUIT     0.018     0  03:02      0.68    0.01    0.50
  GQ103                CONDUIT     0.009     0  03:03      0.30    0.01    0.53
  GQ104                CONDUIT     0.013     0  03:05      0.39    0.01    0.53
  GQ105                CONDUIT     0.048     0  03:23      0.30    0.15    0.82
  GQ106                CONDUIT     0.006     0  03:01      0.38    0.01    0.49
  GQ107                CONDUIT     0.017     0  03:03      0.72    0.02    0.50
  GQ108                CONDUIT     0.051     0  03:23      0.67    0.06    0.42
  GQ109                CONDUIT     0.004     0  03:01      0.48    0.01    0.07
  GQ110                CONDUIT     0.006     0  03:01      0.33    0.00    0.21
  GQ111                CONDUIT     0.006     0  03:01      0.39    0.01    0.35
  GQ112                CONDUIT     0.018     0  03:02      0.92    0.00    0.05
  GQ113                CONDUIT     0.010     0  03:00      1.10    0.01    0.07
  GQ114                CONDUIT     0.004     0  03:02      0.05    0.00    0.47
  GQ115                CONDUIT     0.003     0  03:01      0.32    0.00    0.03
  GQ116                CONDUIT     0.004     0  03:01      0.09    0.00    0.29
  GQ117                CONDUIT     0.014     0  03:01      1.42    0.01    0.05
  GQ118                CONDUIT     0.006     0  03:00      0.76    0.00    0.05
  GQ119                CONDUIT     0.036     0  03:10      0.39    0.02    0.54
  GQ120                CONDUIT     0.000     0  00:00      0.00    0.00    0.50
  GQ121                CONDUIT     0.029     0  06:59      0.41    0.02    0.70
  GQ122                CONDUIT     0.008     0  03:01      0.74    0.00    0.21
  GQ123                CONDUIT     0.006     0  03:00      0.69    0.00    0.28
  GQ124                CONDUIT     0.003     0  03:01      0.34    0.00    0.05
  GQ125                CONDUIT     0.006     0  03:01      0.40    0.01    0.34
  GQ126                CONDUIT     0.007     0  03:01      0.37    0.01    0.34
  GQ127                CONDUIT     0.005     0  03:13      0.32    0.01    0.07
  GQ128                CONDUIT     0.025     0  03:06      1.02    0.01    0.06
  GQ129                CONDUIT     0.027     0  03:11      0.27    0.02    0.54
  GQ130                CONDUIT     0.040     0  03:11      0.24    0.04    0.57
  GQ131                CONDUIT     0.013     0  03:02      0.19    0.02    0.54
  
  
  ***************************
  Flow Classification Summary
  ***************************
  
  -------------------------------------------------------------------------------------
                      Adjusted    ---------- Fraction of Time in Flow Class ---------- 
                       /Actual         Up    Down  Sub   Sup   Up    Down  Norm  Inlet 
  Conduit               Length    Dry  Dry   Dry   Crit  Crit  Crit  Crit  Ltd   Ctrl  
  -------------------------------------------------------------------------------------
  GQ1                     1.00   0.12  0.00  0.00  0.20  0.68  0.00  0.00  0.00  0.00
  GQ2                     1.00   0.12  0.00  0.00  0.51  0.37  0.00  0.00  0.84  0.00
  GQ3                     1.00   0.14  0.00  0.00  0.02  0.84  0.00  0.00  0.32  0.00
  GQ4                     1.00   0.12  0.00  0.00  0.88  0.00  0.00  0.00  0.85  0.00
  GQ5                     1.00   0.12  0.00  0.00  0.88  0.00  0.00  0.00  0.85  0.00
  GQ6                     1.00   0.12  0.01  0.00  0.87  0.00  0.00  0.00  0.85  0.00
  GQ7                     1.00   0.12  0.00  0.00  0.04  0.84  0.00  0.00  0.00  0.00
  GQ8                     1.00   0.12  0.00  0.00  0.88  0.00  0.00  0.00  0.85  0.00
  GQ9                     1.00   0.12  0.00  0.00  0.88  0.00  0.00  0.00  0.85  0.00
  GQ10                    1.00   0.12  0.00  0.00  0.70  0.18  0.00  0.00  0.85  0.00
  GQ11                    1.00   0.12  0.00  0.00  0.45  0.43  0.00  0.00  0.78  0.00
  GQ12                    1.00   0.12  0.00  0.00  0.88  0.00  0.00  0.00  0.85  0.00
  GQ13                    1.00   0.12  0.04  0.00  0.84  0.00  0.00  0.00  0.85  0.00
  GQ14                    1.00   0.12  0.00  0.00  0.88  0.00  0.00  0.00  0.00  0.00
  GQ15                    1.00   0.12  0.00  0.00  0.01  0.87  0.00  0.00  0.01  0.00
  GQ16                    1.00   0.12  0.00  0.00  0.06  0.82  0.00  0.00  0.00  0.00
  GQ17                    1.00   0.12  0.00  0.00  0.57  0.30  0.00  0.00  0.85  0.00
  GQ18                    1.00   0.12  0.00  0.00  0.88  0.00  0.00  0.00  0.24  0.00
  GQ19                    1.00   0.12  0.00  0.00  0.41  0.47  0.00  0.00  0.85  0.00
  GQ20                    1.00   0.12  0.00  0.00  0.88  0.00  0.00  0.00  0.85  0.00
  GQ21                    1.00   0.12  0.00  0.00  0.64  0.24  0.00  0.00  0.85  0.00
  GQ22                    1.00   0.12  0.00  0.00  0.56  0.32  0.00  0.00  0.85  0.00
  GQ23                    1.00   0.12  0.00  0.00  0.21  0.67  0.00  0.00  0.00  0.00
  GQ24                    1.00   0.12  0.00  0.00  0.88  0.00  0.00  0.00  0.85  0.00
  GQ25                    1.00   0.12  0.00  0.00  0.01  0.87  0.00  0.00  0.00  0.00
  GQ26                    1.00   0.12  0.00  0.00  0.04  0.84  0.00  0.00  0.76  0.00
  GQ27                    1.00   0.12  0.00  0.00  0.13  0.75  0.00  0.00  0.85  0.00
  GQ28                    1.00   0.12  0.00  0.00  0.88  0.00  0.00  0.00  0.85  0.00
  GQ29                    1.00   0.12  0.00  0.00  0.88  0.00  0.00  0.00  0.85  0.00
  GQ30                    1.00   0.12  0.00  0.00  0.83  0.05  0.00  0.00  0.83  0.00
  GQ31                    1.00   0.12  0.00  0.00  0.88  0.00  0.00  0.00  0.85  0.00
  GQ32                    1.00   0.12  0.00  0.00  0.10  0.78  0.00  0.00  0.00  0.00
  GQ33                    1.00   0.12  0.00  0.00  0.88  0.00  0.00  0.00  0.85  0.00
  GQ34                    1.00   0.12  0.00  0.00  0.88  0.00  0.00  0.00  0.85  0.00
  GQ35                    1.00   0.12  0.00  0.00  0.28  0.60  0.00  0.00  0.43  0.00
  GQ36                    1.00   0.12  0.00  0.00  0.03  0.85  0.00  0.00  0.68  0.00
  GQ37                    1.00   0.12  0.00  0.00  0.88  0.00  0.00  0.00  0.85  0.00
  GQ38                    1.00   0.12  0.02  0.00  0.86  0.00  0.00  0.00  0.85  0.00
  GQ39                    1.00   0.12  0.00  0.00  0.82  0.06  0.00  0.00  0.85  0.00
  GQ40                    1.00   0.12  0.00  0.00  0.16  0.72  0.00  0.00  0.85  0.00
  GQ41                    1.00   0.12  0.00  0.00  0.88  0.00  0.00  0.00  0.85  0.00
  GQ42                    1.00   0.12  0.00  0.00  0.88  0.00  0.00  0.00  0.85  0.00
  GQ43                    1.00   0.12  0.00  0.00  0.13  0.75  0.00  0.00  0.85  0.00
  GQ44                    1.00   0.12  0.00  0.00  0.88  0.00  0.00  0.00  0.85  0.00
  GQ45                    1.00   0.12  0.00  0.00  0.73  0.14  0.00  0.00  0.85  0.00
  GQ46                    1.00   0.12  0.00  0.00  0.56  0.32  0.00  0.00  0.55  0.00
  GQ47                    1.00   0.12  0.00  0.00  0.88  0.00  0.00  0.00  0.85  0.00
  GQ48                    1.00   0.12  0.00  0.00  0.88  0.00  0.00  0.00  0.85  0.00
  GQ49                    1.00   0.12  0.00  0.00  0.83  0.05  0.00  0.00  0.85  0.00
  GQ50                    1.00   0.12  0.00  0.00  0.88  0.00  0.00  0.00  0.85  0.00
  GQ51                    1.00   0.12  0.00  0.00  0.07  0.81  0.00  0.00  0.44  0.00
  GQ52                    1.00   0.12  0.00  0.00  0.88  0.00  0.00  0.00  0.01  0.00
  GQ53                    1.00   0.12  0.00  0.00  0.88  0.00  0.00  0.00  0.85  0.00
  GQ54                    1.00   0.12  0.00  0.00  0.88  0.00  0.00  0.00  0.85  0.00
  GQ55                    1.00   0.12  0.00  0.00  0.88  0.00  0.00  0.00  0.85  0.00
  GQ56                    1.00   0.12  0.00  0.00  0.02  0.86  0.00  0.00  0.49  0.00
  GQ57                    1.00   0.12  0.00  0.00  0.88  0.00  0.00  0.00  0.85  0.00
  GQ58                    1.00   0.12  0.00  0.00  0.88  0.00  0.00  0.00  0.85  0.00
  GQ59                    1.00   0.12  0.00  0.00  0.88  0.00  0.00  0.00  0.85  0.00
  GQ60                    1.00   0.12  0.00  0.00  0.88  0.00  0.00  0.00  0.85  0.00
  GQ61                    1.00   0.12  0.00  0.00  0.88  0.00  0.00  0.00  0.85  0.00
  GQ62                    1.00   0.12  0.00  0.00  0.88  0.00  0.00  0.00  0.86  0.00
  GQ63                    1.00   0.12  0.00  0.00  0.85  0.03  0.00  0.00  0.86  0.00
  GQ64                    1.00   0.12  0.00  0.00  0.56  0.32  0.00  0.00  0.85  0.00
  GQ65                    1.00   0.12  0.00  0.00  0.88  0.00  0.00  0.00  0.85  0.00
  GQ66                    1.00   0.12  0.00  0.00  0.88  0.00  0.00  0.00  0.85  0.00
  GQ67                    1.00   0.12  0.00  0.00  0.88  0.00  0.00  0.00  0.39  0.00
  GQ68                    1.00   0.12  0.00  0.00  0.88  0.00  0.00  0.00  0.85  0.00
  GQ69                    1.00   0.12  0.00  0.00  0.71  0.17  0.00  0.00  0.85  0.00
  GQ70                    1.00   0.15  0.01  0.00  0.04  0.80  0.00  0.00  0.41  0.00
  GQ71                    1.00   0.13  0.00  0.00  0.02  0.85  0.00  0.00  0.27  0.00
  GQ72                    1.00   0.12  0.00  0.00  0.01  0.87  0.00  0.00  0.25  0.00
  GQ73                    1.00   0.14  0.00  0.00  0.05  0.81  0.00  0.00  0.30  0.00
  GQ74                    1.00   0.12  0.00  0.00  0.79  0.09  0.00  0.00  0.85  0.00
  GQ75                    1.00   0.12  0.02  0.00  0.86  0.00  0.00  0.00  0.85  0.00
  GQ76                    1.00   0.12  0.00  0.00  0.00  0.87  0.00  0.00  0.19  0.00
  GQ77                    1.00   0.12  0.88  0.00  0.00  0.00  0.00  0.00  0.00  0.00
  GQ78                    1.00   0.12  0.00  0.00  0.88  0.00  0.00  0.00  0.85  0.00
  GQ79                    1.00   0.12  0.00  0.00  0.88  0.00  0.00  0.00  0.71  0.00
  GQ80                    1.00   0.12  0.00  0.00  0.88  0.00  0.00  0.00  0.85  0.00
  GQ81                    1.00   0.12  0.00  0.00  0.88  0.00  0.00  0.00  0.23  0.00
  GQ82                    1.00   0.12  0.00  0.00  0.68  0.20  0.00  0.00  0.85  0.00
  GQ83                    1.00   0.12  0.00  0.00  0.00  0.87  0.00  0.00  0.85  0.00
  GQ84                    1.00   0.12  0.00  0.00  0.35  0.53  0.00  0.00  0.85  0.00
  GQ85                    1.00   0.12  0.00  0.00  0.88  0.00  0.00  0.00  0.85  0.00
  GQ86                    1.00   0.12  0.00  0.00  0.88  0.00  0.00  0.00  0.85  0.00
  GQ87                    1.00   0.12  0.00  0.00  0.88  0.00  0.00  0.00  0.85  0.00
  GQ88                    1.00   0.12  0.00  0.00  0.88  0.00  0.00  0.00  0.85  0.00
  GQ89                    1.00   0.12  0.00  0.00  0.88  0.00  0.00  0.00  0.85  0.00
  GQ90                    1.00   0.12  0.00  0.00  0.83  0.05  0.00  0.00  0.85  0.00
  GQ91                    1.00   0.12  0.00  0.00  0.88  0.00  0.00  0.00  0.85  0.00
  GQ92                    1.00   0.12  0.00  0.00  0.85  0.03  0.00  0.00  0.00  0.00
  GQ93                    1.00   0.12  0.00  0.00  0.88  0.00  0.00  0.00  0.85  0.00
  GQ94                    1.00   0.12  0.00  0.00  0.16  0.72  0.00  0.00  0.00  0.00
  GQ95                    1.00   0.12  0.00  0.00  0.88  0.00  0.00  0.00  0.85  0.00
  GQ96                    1.00   0.12  0.00  0.00  0.88  0.00  0.00  0.00  0.37  0.00
  GQ97                    1.00   0.12  0.00  0.00  0.06  0.82  0.00  0.00  0.00  0.00
  GQ98                    1.00   0.12  0.00  0.00  0.88  0.00  0.00  0.00  0.85  0.00
  GQ99                    1.00   0.12  0.00  0.00  0.88  0.00  0.00  0.00  0.85  0.00
  GQ100                   1.00   0.12  0.00  0.00  0.04  0.83  0.00  0.00  0.00  0.00
  GQ101                   1.00   0.12  0.00  0.00  0.88  0.00  0.00  0.00  0.85  0.00
  GQ102                   1.00   0.12  0.00  0.00  0.70  0.18  0.00  0.00  0.85  0.00
  GQ103                   1.00   0.12  0.00  0.00  0.88  0.00  0.00  0.00  0.85  0.00
  GQ104                   1.00   0.12  0.00  0.00  0.88  0.00  0.00  0.00  0.85  0.00
  GQ105                   1.00   0.12  0.00  0.00  0.88  0.00  0.00  0.00  0.33  0.00
  GQ106                   1.00   0.12  0.00  0.00  0.88  0.00  0.00  0.00  0.85  0.00
  GQ107                   1.00   0.12  0.00  0.00  0.68  0.20  0.00  0.00  0.85  0.00
  GQ108                   1.00   0.12  0.00  0.00  0.88  0.00  0.00  0.00  0.85  0.00
  GQ109                   1.00   0.12  0.00  0.00  0.80  0.08  0.00  0.00  0.84  0.00
  GQ110                   1.00   0.12  0.00  0.00  0.88  0.00  0.00  0.00  0.85  0.00
  GQ111                   1.00   0.12  0.00  0.00  0.88  0.00  0.00  0.00  0.85  0.00
  GQ112                   1.00   0.12  0.00  0.00  0.04  0.84  0.00  0.00  0.85  0.00
  GQ113                   1.00   0.12  0.00  0.00  0.00  0.88  0.00  0.00  0.80  0.00
  GQ114                   1.00   0.12  0.00  0.00  0.88  0.00  0.00  0.00  0.85  0.00
  GQ115                   1.00   0.12  0.00  0.00  0.88  0.00  0.00  0.00  0.85  0.00
  GQ116                   1.00   0.12  0.00  0.00  0.88  0.00  0.00  0.00  0.85  0.00
  GQ117                   1.00   0.12  0.00  0.00  0.01  0.87  0.00  0.00  0.00  0.00
  GQ118                   1.00   0.12  0.00  0.00  0.38  0.50  0.00  0.00  0.85  0.00
  GQ119                   1.00   0.12  0.00  0.00  0.88  0.00  0.00  0.00  0.85  0.00
  GQ120                   1.00   0.12  0.88  0.00  0.00  0.00  0.00  0.00  0.00  0.00
  GQ121                   1.00   0.12  0.00  0.00  0.88  0.00  0.00  0.00  0.78  0.00
  GQ122                   1.00   0.12  0.02  0.00  0.30  0.56  0.00  0.00  0.85  0.00
  GQ123                   1.00   0.12  0.00  0.00  0.43  0.44  0.00  0.00  0.85  0.00
  GQ124                   1.00   0.12  0.02  0.00  0.86  0.00  0.00  0.00  0.85  0.00
  GQ125                   1.00   0.12  0.00  0.00  0.88  0.00  0.00  0.00  0.85  0.00
  GQ126                   1.00   0.12  0.00  0.00  0.88  0.00  0.00  0.00  0.85  0.00
  GQ127                   1.00   0.12  0.00  0.00  0.88  0.00  0.00  0.00  0.85  0.00
  GQ128                   1.00   0.12  0.00  0.00  0.08  0.80  0.00  0.00  0.72  0.00
  GQ129                   1.00   0.12  0.00  0.00  0.88  0.00  0.00  0.00  0.85  0.00
  GQ130                   1.00   0.12  0.00  0.00  0.88  0.00  0.00  0.00  0.85  0.00
  GQ131                   1.00   0.12  0.00  0.00  0.88  0.00  0.00  0.00  0.85  0.00
  
  
  *************************
  Conduit Surcharge Summary
  *************************
  
  ----------------------------------------------------------------------------
                                                           Hours        Hours 
                         --------- Hours Full --------   Above Full   Capacity
  Conduit                Both Ends  Upstream  Dnstream   Normal Flow   Limited
  ----------------------------------------------------------------------------
  GQ4                         0.01      0.01      0.26      0.01         0.01
  GQ9                         0.01      0.01      3.33      0.01         0.01
  GQ10                        0.01      0.01      3.69      0.01         0.01
  GQ24                        0.01      0.01      2.58      0.01         0.01
  GQ30                        0.01      0.01      0.43      0.01         0.01
  GQ31                        0.01      0.01      3.81      0.01         0.01
  GQ33                        0.01      0.01      3.81      0.01         0.01
  GQ37                        0.01      0.01      2.91      0.01         0.01
  GQ38                        0.01      0.01      2.91      0.01         0.01
  GQ42                        0.01      0.01      0.13      0.01         0.01
  GQ48                        0.01      0.01      0.20      0.01         0.01
  GQ49                        0.01      0.01      0.20      0.01         0.01
  GQ53                        0.01      0.01      0.99      0.01         0.01
  GQ54                        0.01      0.01      0.18      0.01         0.01
  GQ55                        0.01      0.01      0.18      0.01         0.01
  GQ78                        0.01      0.01      1.23      0.01         0.01
  GQ79                        0.01      0.01      1.23      0.01         0.01
  GQ85                        0.01      0.01      3.79      0.01         0.01
  GQ103                       0.01      0.01      1.46      0.01         0.01
  GQ104                       0.01      0.01      1.46      0.01         0.01
  GQ119                       0.01      0.01      2.49      0.01         0.01
  GQ121                       0.01      0.01      2.49      0.01         0.01
  GQ129                       0.01      0.01      2.58      0.01         0.01
  GQ130                       0.01      0.01      4.18      0.01         0.01
  GQ131                       0.01      0.01      3.84      0.01         0.01
  

  Analysis begun on:  Wed Mar 29 19:37:36 2023
  Analysis ended on:  Wed Mar 29 19:37:47 2023
  Total elapsed time: 00:00:11