
  OWA STORM WATER MANAGEMENT MODEL - VERSION v5.1.14 (OWA 2022-07-31)
  --------------------------------------------------------------

  INP file created by DSDAConvertToSwmmTools 
  version 0.0.1 EcoVista 
  Title/Notes: 
  
  
  *********************************************************
  NOTE: The summary statistics displayed in this report are
  based on results found at every computational time step,  
  not just on results from each reporting time step.
  *********************************************************
  
  ****************
  Analysis Options
  ****************
  Flow Units ............... CMS
  Process Models:
    Rainfall/Runoff ........ YES
    RDII ................... NO
    Snowmelt ............... NO
    Groundwater ............ NO
    Flow Routing ........... YES
    Ponding Allowed ........ NO
    Water Quality .......... NO
  Infiltration Method ...... GREEN_AMPT
  Flow Routing Method ...... DYNWAVE
  Surcharge Method ......... EXTRAN
  Starting Date ............ 07/15/2020 00:00:00
  Ending Date .............. 07/16/2020 01:00:00
  Antecedent Dry Days ...... 0.0
  Report Time Step ......... 00:30:00
  Wet Time Step ............ 00:05:00
  Dry Time Step ............ 01:00:00
  Routing Time Step ........ 30.00 sec
  Variable Time Step ....... YES
  Maximum Trials ........... 8
  Number of Threads ........ 1
  Head Tolerance ........... 0.001500 m
  
  
  **************************        Volume         Depth
  Runoff Quantity Continuity     hectare-m            mm
  **************************     ---------       -------
  Total Precipitation ......       623.455       156.000
  Evaporation Loss .........         9.185         2.298
  Infiltration Loss ........       166.489        41.659
  Surface Runoff ...........       441.215       110.400
  Final Storage ............         6.908         1.729
  Continuity Error (%) .....        -0.055
  
  
  **************************        Volume        Volume
  Flow Routing Continuity        hectare-m      10^6 ltr
  **************************     ---------     ---------
  Dry Weather Inflow .......         0.000         0.000
  Wet Weather Inflow .......       441.147      4411.515
  Groundwater Inflow .......         0.000         0.000
  RDII Inflow ..............         0.000         0.000
  External Inflow ..........         0.000         0.000
  External Outflow .........        37.933       379.330
  Flooding Loss ............       401.866      4018.703
  Evaporation Loss .........         0.000         0.000
  Exfiltration Loss ........         0.000         0.000
  Initial Stored Volume ....         0.000         0.000
  Final Stored Volume ......         1.224        12.242
  Continuity Error (%) .....         0.028
  
  
  *************************
  Highest Continuity Errors
  *************************
  Node jd51 (1.24%)
  Node jd64 (1.01%)
  
  
  ***************************
  Time-Step Critical Elements
  ***************************
  Link GQ73 (98.76%)
  
  
  ********************************
  Highest Flow Instability Indexes
  ********************************
  Link GQ67 (16)
  Link GQ114 (7)
  Link GQ94 (5)
  Link GQ121 (4)
  Link GQ29 (4)
  
  
  *************************
  Routing Time Step Summary
  *************************
  Minimum Time Step           :     2.47 sec
  Average Time Step           :     6.18 sec
  Maximum Time Step           :    30.00 sec
  Percent in Steady State     :     0.00
  Average Iterations per Step :     4.12
  Percent Not Converging      :    16.14
  
  
  ***************************
  Subcatchment Runoff Summary
  ***************************
  
  ------------------------------------------------------------------------------------------------------------------------------
                            Total      Total      Total      Total     Imperv       Perv      Total       Total     Peak  Runoff
                           Precip      Runon       Evap      Infil     Runoff     Runoff     Runoff      Runoff   Runoff   Coeff
  Subcatchment                 mm         mm         mm         mm         mm         mm         mm    10^6 ltr      CMS
  ------------------------------------------------------------------------------------------------------------------------------
  1                        156.00       0.00       1.43      87.33      66.38       0.00      66.38       26.28     1.13   0.426
  2                        156.00       0.00       2.46      33.18     118.45       0.00     118.45      107.11     4.61   0.759
  3                        156.00       0.00       2.55      28.44     123.20       0.00     123.20       49.30     2.12   0.790
  4                        156.00       0.00       2.63      24.43     127.19       0.00     127.19       10.67     0.46   0.815
  5                        156.00       0.00       2.34      39.70     112.42       0.00     112.42       13.90     0.60   0.721
  6                        156.00       0.00       2.24      44.68     107.65       0.00     107.65       10.00     0.43   0.690
  7                        156.00       0.00       2.33      39.88     112.06       0.00     112.06       48.86     2.10   0.718
  8                        156.00       0.00       2.92       8.72     142.23       0.00     142.23       19.80     0.85   0.912
  9                        156.00       0.00       3.01       4.36     146.48       0.00     146.48       17.14     0.74   0.939
  10                       156.00       0.00       2.61      25.35     126.20       0.00     126.20       28.43     1.22   0.809
  11                       156.00       0.00       2.81      14.90     136.23       0.00     136.23       67.54     2.91   0.873
  12                       156.00       0.00       2.24      44.82     107.40       0.00     107.40       52.40     2.26   0.688
  13                       156.00       0.00       2.77      16.81     134.40       0.00     134.40       60.79     2.62   0.862
  14                       156.00       0.00       2.77      17.00     134.30       0.00     134.30       25.34     1.09   0.861
  15                       156.00       0.00       2.57      27.41     124.20       0.00     124.20       41.98     1.81   0.796
  16                       156.00       0.00       2.66      22.65     128.77       0.00     128.77       38.04     1.64   0.825
  17                       156.00       0.00       2.50      31.11     120.62       0.00     120.62       50.47     2.17   0.773
  18                       156.00       0.00       2.86      12.27     138.77       0.00     138.77       57.30     2.47   0.890
  19                       156.00       0.00       2.85      12.82     138.21       0.00     138.21       31.07     1.34   0.886
  20                       156.00       0.00       2.83      13.68     137.26       0.00     137.26       73.66     3.17   0.880
  21                       156.00       0.00       3.00       4.59     146.17       0.00     146.17       45.86     1.98   0.937
  22                       156.00       0.00       2.95       7.36     143.47       0.00     143.47       17.64     0.76   0.920
  23                       156.00       0.00       2.73      19.07     132.16       0.00     132.16       75.66     3.26   0.847
  24                       156.00       0.00       2.64      23.80     127.58       0.00     127.58       22.62     0.97   0.818
  25                       156.00       0.00       2.81      14.63     136.56       0.00     136.56       27.65     1.19   0.875
  26                       156.00       0.00       2.41      35.56     116.18       0.00     116.18       40.78     1.76   0.745
  27                       156.00       0.00       2.87      11.67     139.21       0.00     139.21       58.83     2.54   0.892
  28                       156.00       0.00       2.93       8.60     142.24       0.00     142.24       67.24     2.90   0.912
  29                       156.00       0.00       2.63      24.19     127.36       0.00     127.36       29.73     1.28   0.816
  30                       156.00       0.00       2.99       5.26     145.70       0.00     145.70       10.45     0.45   0.934
  31                       156.00       0.00       3.03       3.28     147.46       0.00     147.46       32.50     1.40   0.945
  32                       156.00       0.00       2.96       6.94     143.90       0.00     143.90       62.18     2.68   0.922
  33                       156.00       0.00       2.99       5.07     145.68       0.00     145.68       51.33     2.21   0.934
  34                       156.00       0.00       2.79      15.79     135.39       0.00     135.39       39.69     1.71   0.868
  35                       156.00       0.00       2.87      11.76     139.26       0.00     139.26       57.76     2.49   0.893
  36                       156.00       0.00       2.38      37.13     114.85       0.00     114.85       45.19     1.95   0.736
  37                       156.00       0.00       2.93       8.41     142.48       0.00     142.48       31.62     1.36   0.913
  38                       156.00       0.00       2.75      17.65     133.61       0.00     133.61       50.96     2.20   0.856
  39                       156.00       0.00       2.50      31.00     120.76       0.00     120.76       50.99     2.20   0.774
  40                       156.00       0.00       2.77      16.86     134.36       0.00     134.36       30.72     1.32   0.861
  41                       156.00       0.00       2.83      13.72     137.45       0.00     137.45       27.11     1.17   0.881
  42                       156.00       0.00       2.83      13.86     137.13       0.00     137.13       33.87     1.46   0.879
  43                       156.00       0.00       2.40      36.45     115.40       0.00     115.40       91.22     3.93   0.740
  44                       156.00       0.00       2.55      28.42     123.13       0.00     123.13       59.51     2.56   0.789
  45                       156.00       0.00       2.40      36.15     115.72       0.00     115.72       83.73     3.61   0.742
  46                       156.00       0.00       2.32      40.29     111.84       0.00     111.84       55.91     2.41   0.717
  47                       156.00       0.00       2.43      34.47     117.34       0.00     117.34      136.80     5.89   0.752
  48                       156.00       0.00       2.88      10.79     140.04       0.00     140.04       81.27     3.50   0.898
  49                       156.00       0.00       2.65      23.09     128.19       0.00     128.19       86.78     3.74   0.822
  50                       156.00       0.00       2.92       8.78     141.87       0.00     141.87       55.76     2.40   0.909
  51                       156.00       0.00       2.80      15.14     135.77       0.00     135.77       25.40     1.09   0.870
  52                       156.00       0.00       1.43      87.45      66.31       0.00      66.31       68.05     2.93   0.425
  53                       156.00       0.00       2.01      56.76      95.95       0.00      95.95      102.19     4.40   0.615
  54                       156.00       0.00       2.45      33.57     118.26       0.00     118.26       28.83     1.24   0.758
  55                       156.00       0.00       1.46      85.85      67.85       0.00      67.85       53.54     2.30   0.435
  56                       156.00       0.00       0.63     129.48      25.67       0.00      25.67       20.92     0.90   0.165
  57                       156.00       0.00       2.76      17.36     133.72       0.00     133.72      111.10     4.79   0.857
  58                       156.00       0.00       2.57      27.53     124.07       0.00     124.07       20.43     0.88   0.795
  59                       156.00       0.00       2.51      30.60     121.22       0.00     121.22       15.43     0.66   0.777
  60                       156.00       0.00       1.02     108.93      45.55       0.00      45.55       13.05     0.56   0.292
  61                       156.00       0.00       1.52      82.86      70.64       0.00      70.64       26.62     1.15   0.453
  62                       156.00       0.00       2.06      54.24      98.25       0.00      98.25      115.14     4.96   0.630
  63                       156.00       0.00       2.76      17.18     133.81       0.00     133.81      258.78    11.14   0.858
  64                       156.00       0.00       2.09      52.41     100.14       0.00     100.14       21.50     0.92   0.642
  65                       156.00       0.00       2.80      15.21     135.73       0.00     135.73       91.29     3.93   0.870
  66                       156.00       0.00       2.23      45.09     107.04       0.00     107.04       27.28     1.17   0.686
  67                       156.00       0.00       2.10      52.33     100.26       0.00     100.26       32.41     1.39   0.643
  68                       156.00       0.00       2.49      31.67     120.12       0.00     120.12       13.35     0.57   0.770
  69                       156.00       0.00       1.51      82.97      70.72       0.00      70.72       22.63     0.97   0.453
  70                       156.00       0.00       2.08      53.28      99.21       0.00      99.21       81.62     3.51   0.636
  71                       156.00       0.00       2.54      29.14     122.56       0.00     122.56       15.03     0.65   0.786
  72                       156.00       0.00       2.67      22.25     129.21       0.00     129.21       16.09     0.69   0.828
  73                       156.00       0.00       2.43      34.81     117.15       0.00     117.15       19.46     0.84   0.751
  74                       156.00       0.00       2.32      40.48     111.65       0.00     111.65       24.03     1.03   0.716
  75                       156.00       0.00       2.56      27.61     124.04       0.00     124.04       17.87     0.77   0.795
  76                       156.00       0.00       2.69      20.93     130.51       0.00     130.51       12.64     0.54   0.837
  77                       156.00       0.00       2.86      11.99     139.08       0.00     139.08       15.05     0.65   0.892
  78                       156.00       0.00       2.77      17.06     134.17       0.00     134.17       14.74     0.64   0.860
  79                       156.00       0.00       1.29      94.99      59.03       0.00      59.03       62.60     2.69   0.378
  80                       156.00       0.00       2.31      41.13     110.88       0.00     110.88       69.41     2.99   0.711
  81                       156.00       0.00       2.34      39.32     112.62       0.00     112.62       49.09     2.11   0.722
  82                       156.00       0.00       2.25      44.26     107.86       0.00     107.86       98.89     4.26   0.691
  83                       156.00       0.00       2.78      16.35     134.91       0.00     134.91       16.49     0.71   0.865
  84                       156.00       0.00       2.63      24.21     127.28       0.00     127.28       15.19     0.65   0.816
  85                       156.00       0.00       3.07       1.18     149.56       0.00     149.56       13.91     0.60   0.959
  86                       156.00       0.00       2.84      13.15     137.95       0.00     137.95       20.32     0.88   0.884
  87                       156.00       0.00       3.03       3.34     147.36       0.00     147.36       19.38     0.84   0.945
  88                       156.00       0.00       2.72      19.44     131.94       0.00     131.94       12.63     0.54   0.846
  89                       156.00       0.00       2.85      12.53     138.59       0.00     138.59       26.69     1.15   0.888
  90                       156.00       0.00       3.09       0.03     150.74       0.00     150.74        1.73     0.07   0.966
  91                       156.00       0.00       2.59      26.12     125.28       0.00     125.28       27.32     1.18   0.803
  92                       156.00       0.00       2.86      12.13     138.95       0.00     138.95       17.37     0.75   0.891
  93                       156.00       0.00       2.35      38.72     113.27       0.00     113.27       57.97     2.50   0.726
  94                       156.00       0.00       2.13      50.49     102.09       0.00     102.09        7.15     0.31   0.654
  95                       156.00       0.00       3.09       0.17     150.53       0.00     150.53        3.29     0.14   0.965
  96                       156.00       0.00       2.52      30.18     121.57       0.00     121.57       14.85     0.64   0.779
  97                       156.00       0.00       3.03       3.30     147.48       0.00     147.48       14.65     0.63   0.945
  98                       156.00       0.00       2.53      29.45     122.29       0.00     122.29       15.08     0.65   0.784
  99                       156.00       0.00       1.32      93.26      60.73       0.00      60.73       22.54     0.97   0.389
  100                      156.00       0.00       1.45      86.26      67.51       0.00      67.51       17.32     0.74   0.433
  101                      156.00       0.00       1.48      84.55      69.13       0.00      69.13       33.87     1.46   0.443
  102                      156.00       0.00       2.34      39.64     112.41       0.00     112.41       27.41     1.18   0.721
  103                      156.00       0.00       0.87     117.02      37.74       0.00      37.74       13.72     0.59   0.242
  104                      156.00       0.00       0.63     129.60      25.52       0.00      25.52       24.73     1.06   0.164
  105                      156.00       0.00       2.56      27.68     124.00       0.00     124.00       16.22     0.70   0.795
  106                      156.00       0.00       1.45      86.44      67.31       0.00      67.31       16.42     0.71   0.431
  
  
  ******************
  Node Depth Summary
  ******************
  
  ---------------------------------------------------------------------------------
                                 Average  Maximum  Maximum  Time of Max    Reported
                                   Depth    Depth      HGL   Occurrence   Max Depth
  Node                 Type       Meters   Meters   Meters  days hr:min      Meters
  ---------------------------------------------------------------------------------
  jd1                  JUNCTION     0.15     0.26   273.26     0  18:00        0.26
  jd2                  JUNCTION     1.30     3.00   270.00     0  05:15        3.00
  jd3                  JUNCTION     2.94     3.00   266.00     0  01:47        3.00
  jd4                  JUNCTION     2.01     3.00   270.00     0  02:18        3.00
  jd5                  JUNCTION     0.11     0.19   274.19     0  18:00        0.19
  jd6                  JUNCTION     0.14     0.26   275.26     0  18:00        0.26
  jd7                  JUNCTION     0.41     0.66   264.76     0  18:00        0.66
  jd8                  JUNCTION     2.34     3.00   267.00     0  01:51        3.00
  jd9                  JUNCTION     2.09     3.00   268.00     0  02:02        3.00
  jd10                 JUNCTION     2.94     3.00   273.00     0  01:41        3.00
  jd11                 JUNCTION     0.12     0.23   282.23     0  18:00        0.23
  jd12                 JUNCTION     2.95     3.00   272.00     0  01:38        3.00
  jd13                 JUNCTION     0.15     0.31   289.31     0  18:00        0.31
  jd14                 JUNCTION     0.93     3.00   283.00     0  05:38        3.00
  jd15                 JUNCTION     0.36     0.71   278.71     0  18:00        0.71
  jd16                 JUNCTION     0.40     0.87   274.87     0  18:00        0.87
  jd17                 JUNCTION     2.69     3.00   278.80     0  01:57        3.00
  jd18                 JUNCTION     1.23     3.00   282.00     0  05:30        3.00
  jd19                 JUNCTION     1.88     3.00   270.00     0  02:13        3.00
  jd20                 JUNCTION     0.25     0.49   273.49     0  18:00        0.49
  jd21                 JUNCTION     2.94     3.00   273.00     0  01:46        3.00
  jd22                 JUNCTION     2.23     3.00   275.00     0  04:24        3.00
  jd23                 JUNCTION     0.57     3.00   281.00     0  07:22        3.00
  jd24                 JUNCTION     0.18     0.34   285.34     0  18:00        0.34
  jd25                 JUNCTION     0.51     3.00   282.00     0  07:27        2.83
  jd26                 JUNCTION     1.24     3.00   288.00     0  05:26        3.00
  jd27                 JUNCTION     0.50     3.00   294.00     0  07:25        3.00
  jd28                 JUNCTION     2.95     3.00   290.00     0  01:33        3.00
  jd29                 JUNCTION     0.12     0.23   299.23     0  18:00        0.23
  jd30                 JUNCTION     0.16     0.28   290.28     0  18:00        0.28
  jd31                 JUNCTION     1.28     3.00   275.00     0  01:59        2.41
  jd32                 JUNCTION     2.95     3.00   275.00     0  01:38        3.00
  jd33                 JUNCTION     0.24     0.48   289.48     0  18:00        0.48
  jd34                 JUNCTION     0.57     3.00   297.00     0  07:14        3.00
  jd35                 JUNCTION     2.96     3.00   292.00     0  01:27        3.00
  jd36                 JUNCTION     1.51     3.00   302.00     0  05:04        3.00
  jd37                 JUNCTION     1.49     3.00   306.00     0  05:06        3.00
  jd38                 JUNCTION     0.71     3.00   300.00     0  07:22        3.00
  jd39                 JUNCTION     2.94     3.00   297.00     0  01:47        3.00
  jd40                 JUNCTION     1.86     3.00   302.00     0  02:31        3.00
  jd41                 JUNCTION     2.92     3.00   296.00     0  02:08        3.00
  jd42                 JUNCTION     0.26     0.55   305.55     0  18:00        0.55
  jd43                 JUNCTION     1.75     3.00   300.00     0  02:51        3.00
  jd44                 JUNCTION     1.80     3.00   286.00     0  02:38        3.00
  jd45                 JUNCTION     2.94     3.00   282.00     0  01:43        3.00
  jd46                 JUNCTION     0.59     3.00   278.00     0  07:31        3.00
  jd47                 JUNCTION     0.20     0.36   315.36     0  18:00        0.36
  jd48                 JUNCTION     0.14     0.27   325.27     0  18:00        0.27
  jd49                 JUNCTION     0.53     3.00   292.00     0  07:34        3.00
  jd50                 JUNCTION     2.95     3.00   278.00     0  01:32        3.00
  jd51                 JUNCTION     2.91     3.00   313.00     0  02:11        3.00
  jd52                 JUNCTION     1.09     3.00   326.00     0  05:18        2.06
  jd53                 JUNCTION     1.49     3.00   325.00     0  05:12        3.00
  jd54                 JUNCTION     0.37     0.87   326.87     0  18:00        0.87
  jd55                 JUNCTION     2.11     3.00   325.00     0  05:18        3.00
  jd56                 JUNCTION     0.25     0.56   327.56     0  18:00        0.56
  jd59                 JUNCTION     2.90     3.00   320.80     0  02:15        3.00
  jd60                 JUNCTION     2.95     3.00   319.00     0  01:37        3.00
  jd61                 JUNCTION     0.18     0.36   329.36     0  18:00        0.36
  jd62                 JUNCTION     0.08     0.15   335.15     0  18:00        0.15
  jd63                 JUNCTION     0.09     0.16   324.16     0  18:00        0.16
  jd64                 JUNCTION     2.75     3.00   321.00     0  02:15        3.00
  jd65                 JUNCTION     2.32     3.00   307.00     0  02:03        3.00
  jd66                 JUNCTION     2.94     3.00   304.00     0  01:42        3.00
  jd69                 JUNCTION     0.30     0.65   333.65     0  18:00        0.65
  jd79                 JUNCTION     2.93     3.00   274.00     0  01:35        3.00
  jd80                 JUNCTION     2.76     3.00   279.00     0  01:47        3.00
  jd81                 JUNCTION     0.19     0.38   288.38     0  18:00        0.38
  jd83                 JUNCTION     2.96     3.00   323.00     0  01:24        3.00
  jd84                 JUNCTION     0.63     3.00   326.00     0  07:10        3.00
  jd85                 JUNCTION     2.95     3.00   324.00     0  01:40        3.00
  jd87                 JUNCTION     2.95     3.00   322.00     0  01:39        3.00
  jd89                 JUNCTION     0.21     0.52   324.52     0  18:00        0.52
  jd90                 JUNCTION     0.18     0.35   328.35     0  18:00        0.35
  jd92                 JUNCTION     0.19     0.51   326.51     0  18:00        0.51
  jd93                 JUNCTION     1.48     3.00   327.00     0  05:12        3.00
  jd94                 JUNCTION     0.79     3.00   329.20     0  07:17        2.33
  jd95                 JUNCTION     0.83     3.00   330.00     0  07:17        2.87
  jd96                 JUNCTION     2.95     3.00   308.00     0  01:34        3.00
  jd97                 JUNCTION     0.84     3.00   330.20     0  07:15        3.00
  jd98                 JUNCTION     0.27     2.17   331.17     0  17:19        1.00
  jd99                 JUNCTION     2.94     3.00   327.00     0  01:43        3.00
  jd101                JUNCTION     0.14     0.25   321.25     0  18:00        0.25
  jd102                JUNCTION     0.55     3.00   327.00     0  07:19        3.00
  jd103                JUNCTION     0.14     0.28   318.28     0  18:00        0.28
  jd106                JUNCTION     2.92     3.00   287.00     0  01:58        3.00
  jd107                JUNCTION     0.27     0.51   332.51     0  18:00        0.51
  jd108                JUNCTION     1.28     1.71   327.71     0  18:00        1.71
  jd109                JUNCTION     0.21     0.44   343.44     0  18:00        0.44
  jd110                JUNCTION     2.95     3.00   327.00     0  01:40        3.00
  jd111                JUNCTION     0.09     0.17   344.17     0  18:00        0.17
  jd112                JUNCTION     0.12     0.22   334.22     0  18:00        0.22
  jd113                JUNCTION     0.13     0.24   348.24     0  18:00        0.24
  jd114                JUNCTION     2.94     3.00   317.00     0  01:41        3.00
  jd117                JUNCTION     1.64     3.00   319.00     0  01:46        3.00
  jd118                JUNCTION     0.12     0.22   330.22     0  18:00        0.22
  jd120                JUNCTION     0.26     3.00   330.00     0  17:19        1.55
  jd121                JUNCTION     0.21     0.47   320.47     0  18:00        0.47
  jd122                JUNCTION     2.94     3.00   276.00     0  01:45        3.00
  jd123                JUNCTION     2.94     3.00   276.20     0  01:48        3.00
  jd124                JUNCTION     2.96     3.00   271.00     0  01:21        3.00
  jd125                JUNCTION     1.96     3.00   278.00     0  02:15        3.00
  jd126                JUNCTION     2.96     3.00   275.00     0  01:26        3.00
  jd135                JUNCTION     0.18     0.43   289.43     0  18:00        0.43
  jd136                JUNCTION     0.44     3.00   344.00     0  17:19        3.00
  psk1                 OUTFALL      0.12     0.22   279.22     0  18:00        0.22
  psk2                 OUTFALL      0.16     0.28   270.28     0  18:00        0.28
  psk3                 OUTFALL      0.40     1.00   272.00     0  17:23        1.00
  psk4                 OUTFALL      0.00     0.00   280.00     0  00:00        0.00
  psk5                 OUTFALL      0.15     0.26   263.26     0  18:00        0.26
  psk6                 OUTFALL      0.11     0.19   259.19     0  18:00        0.19
  psk7                 OUTFALL      0.41     0.66   262.66     0  18:00        0.66
  psk8                 OUTFALL      0.00     0.00   317.00     0  00:00        0.00
  
  
  *******************
  Node Inflow Summary
  *******************
  
  -------------------------------------------------------------------------------------------------
                                  Maximum  Maximum                  Lateral       Total        Flow
                                  Lateral    Total  Time of Max      Inflow      Inflow     Balance
                                   Inflow   Inflow   Occurrence      Volume      Volume       Error
  Node                 Type           CMS      CMS  days hr:min    10^6 ltr    10^6 ltr     Percent
  -------------------------------------------------------------------------------------------------
  jd1                  JUNCTION     1.130    1.477     0  18:00        26.3        40.6       0.013
  jd2                  JUNCTION     1.756    2.274     0  18:00        40.8          55       0.026
  jd3                  JUNCTION     2.105    3.823     0  18:00        48.9         130       0.310
  jd4                  JUNCTION     2.535    2.796     0  18:00        58.8        65.5       0.025
  jd5                  JUNCTION     0.738    1.119     0  18:00        17.1        28.7       0.002
  jd6                  JUNCTION     0.853    0.853     0  18:00        19.8        19.8       0.006
  jd7                  JUNCTION     0.430    3.211     0  18:00          10         113       0.027
  jd8                  JUNCTION     0.598    1.544     0  18:00        13.9        71.7       0.185
  jd9                  JUNCTION     0.459    1.527     0  18:00        10.7        70.4       0.013
  jd10                 JUNCTION     1.225    1.544     0  18:00        28.4        36.1       0.284
  jd11                 JUNCTION     1.808    1.808     0  18:00          42          42      -0.009
  jd12                 JUNCTION     1.363    3.049     0  18:00        31.6        69.2       0.202
  jd13                 JUNCTION     2.469    2.469     0  18:00        57.3        57.3       0.006
  jd14                 JUNCTION     2.898    3.292     0  18:00        67.2        75.9       0.011
  jd15                 JUNCTION     1.191    2.151     0  18:00        27.6        60.8       0.063
  jd16                 JUNCTION     1.280    4.857     0  18:00        29.7         117       0.023
  jd17                 JUNCTION     2.680    5.157     0  18:00        62.2         146       0.327
  jd18                 JUNCTION     2.124    3.115     0  18:00        49.3        71.8       0.031
  jd19                 JUNCTION     1.971    3.477     0  18:00        45.8        87.6       0.015
  jd20                 JUNCTION     1.639    1.887     0  18:00          38        56.1       0.042
  jd21                 JUNCTION     0.760    3.763     0  18:00        17.6         123       0.276
  jd22                 JUNCTION     1.339    2.336     0  18:00        31.1        64.9       0.127
  jd23                 JUNCTION     1.324    3.959     0  18:00        30.7        88.4      -0.017
  jd24                 JUNCTION     2.174    2.174     0  18:00        50.5        50.5      -0.004
  jd25                 JUNCTION     1.710    2.502     0  18:00        39.7        57.6       0.016
  jd26                 JUNCTION     2.489    3.741     0  18:00        57.8        93.7       0.012
  jd27                 JUNCTION     2.564    3.187     0  18:00        59.5        90.9       0.022
  jd28                 JUNCTION     3.502    4.412     0  18:00        81.3         109       0.124
  jd29                 JUNCTION     1.401    1.401     0  18:00        32.5        32.5      -0.010
  jd30                 JUNCTION     1.460    3.467     0  18:00        33.9        98.2       0.012
  jd31                 JUNCTION     0.975    1.797     0  18:00        22.6        47.5       0.961
  jd32                 JUNCTION     1.977    5.310     0  18:00        45.9         168       0.148
  jd33                 JUNCTION     1.946    3.012     0  18:00        45.2        75.5       0.013
  jd34                 JUNCTION     2.407    2.407     0  18:00        55.9        55.9       0.002
  jd35                 JUNCTION     2.196    4.377     0  18:00          51         146       0.090
  jd36                 JUNCTION     3.738    4.805     0  18:00        86.8         131       0.011
  jd37                 JUNCTION     3.928    3.928     0  18:00        91.2        91.2       0.032
  jd38                 JUNCTION     3.606    4.413     0  18:00        83.7         127       0.025
  jd39                 JUNCTION     2.497    6.016     0  18:00          58         195       0.262
  jd40                 JUNCTION     4.259    6.451     0  18:00        98.9         206       0.016
  jd41                 JUNCTION     2.990    9.238     0  18:00        69.4         249       0.861
  jd42                 JUNCTION     3.931    4.308     0  18:00        91.3         100       0.033
  jd43                 JUNCTION     4.397    6.842     0  18:00         102         177       0.051
  jd44                 JUNCTION     5.892    8.769     0  18:00         137         268      -0.021
  jd45                 JUNCTION     2.400    4.625     0  18:00        55.8         170       0.188
  jd46                 JUNCTION     1.094    1.094     0  18:00        25.4        25.4       0.050
  jd47                 JUNCTION     3.515    3.515     0  18:00        81.6        81.6      -0.014
  jd48                 JUNCTION     0.972    0.972     0  18:00        22.6        22.6      -0.012
  jd49                 JUNCTION     4.786    4.786     0  18:00         111         111       0.019
  jd50                 JUNCTION     4.958    8.888     0  18:00         115         277       0.156
  jd51                 JUNCTION     1.034    4.665     0  18:00          24         110       1.257
  jd52                 JUNCTION     2.114    5.441     0  07:15        49.1         134       0.036
  jd53                 JUNCTION     1.177    4.484     0  18:00        27.3         122       0.002
  jd54                 JUNCTION     0.631    3.133     0  18:00        14.6        72.9       0.025
  jd55                 JUNCTION     1.150    5.085     0  18:00        26.7        96.9       0.762
  jd56                 JUNCTION     0.698    2.044     0  18:00        16.2        47.4       0.010
  jd59                 JUNCTION     0.693    3.242     0  18:00        16.1          79       0.992
  jd60                 JUNCTION     1.242    2.635     0  18:00        28.8        61.2       0.213
  jd61                 JUNCTION     1.394    1.567     0  18:00        32.4        36.4       0.010
  jd62                 JUNCTION     0.560    0.560     0  18:00          13          13      -0.007
  jd63                 JUNCTION     0.770    0.770     0  18:00        17.9        17.9       0.000
  jd64                 JUNCTION     0.648    1.601     0  18:00          15        37.1       1.017
  jd65                 JUNCTION    11.140   11.140     0  18:00         259         259       0.012
  jd66                 JUNCTION     1.455    4.219     0  18:00        33.9        98.2       0.324
  jd69                 JUNCTION     2.689    2.764     0  18:00        62.6        64.3       0.008
  jd79                 JUNCTION     2.619    3.535     0  18:00        60.8         101       0.175
  jd80                 JUNCTION     2.910    3.518     0  18:00        67.5        90.1       0.086
  jd81                 JUNCTION     2.212    2.212     0  18:00        51.3        51.3       0.002
  jd83                 JUNCTION     2.302    2.880     0  18:00        53.5        68.3       0.127
  jd84                 JUNCTION     2.925    2.925     0  18:00          68          68       0.011
  jd85                 JUNCTION     0.664    1.087     0  18:00        15.4        25.3       0.337
  jd87                 JUNCTION     0.544    1.314     0  18:00        12.6        30.5       0.247
  jd89                 JUNCTION     0.635    0.635     0  18:00        14.7        14.7       0.008
  jd90                 JUNCTION     0.647    0.647     0  18:00          15          15      -0.000
  jd92                 JUNCTION     0.544    0.544     0  18:00        12.6        12.6       0.001
  jd93                 JUNCTION     1.175    2.147     0  18:00        27.3        57.2       0.020
  jd94                 JUNCTION     0.074    1.029     0  07:16        1.73        29.9      -0.045
  jd95                 JUNCTION     0.142    0.967     0  07:17        3.29        28.2       0.055
  jd96                 JUNCTION     1.061    1.416     0  18:00        24.7        32.9       0.296
  jd97                 JUNCTION     1.146    1.146     0  18:00        26.6        26.6       0.010
  jd98                 JUNCTION     0.640    0.640     0  18:00        14.9        14.9       0.010
  jd99                 JUNCTION     0.308    0.634     0  18:00        7.15        19.5       0.291
  jd101                JUNCTION     0.838    1.538     0  18:00        19.5        38.5      -0.008
  jd102                JUNCTION     0.835    0.835     0  18:00        19.4        19.4       0.014
  jd103                JUNCTION     0.575    0.575     0  18:00        13.3        13.3      -0.000
  jd106                JUNCTION     0.450    2.544     0  18:00        10.4        61.3       0.636
  jd107                JUNCTION     0.649    2.135     0  18:00        15.1        49.6       0.020
  jd108                JUNCTION     0.706    0.706     0  18:00        16.4        16.4       0.397
  jd109                JUNCTION     1.180    1.180     0  18:00        27.4        27.4       0.003
  jd110                JUNCTION     0.896    1.334     0  18:00        20.9        31.1       0.494
  jd111                JUNCTION     0.744    0.744     0  18:00        17.3        17.3      -0.011
  jd112                JUNCTION     0.876    2.425     0  18:00        20.3        56.6       0.006
  jd113                JUNCTION     0.588    0.588     0  18:00        13.7        13.7      -0.012
  jd114                JUNCTION     0.710    4.426     0  18:00        16.5         174       0.181
  jd117                JUNCTION     0.655    2.131     0  18:00        15.2        49.9       0.306
  jd118                JUNCTION     0.599    0.599     0  18:00        13.9        13.9      -0.002
  jd120                JUNCTION     0.748    0.748     0  18:00        17.4        17.4       0.000
  jd121                JUNCTION     0.925    0.925     0  18:00        21.5        21.5       0.006
  jd122                JUNCTION     2.196    6.765     0  18:00          51         198       0.286
  jd123                JUNCTION     2.257    4.802     0  18:00        52.4         178       0.390
  jd124                JUNCTION     3.260    4.333     0  18:00        75.6         143       0.040
  jd125                JUNCTION     3.174    4.849     0  18:00        73.6         171       0.002
  jd126                JUNCTION     4.612    5.475     0  18:00         107         143       0.072
  jd135                JUNCTION     1.168    1.168     0  18:00        27.1        27.1       0.002
  jd136                JUNCTION     0.968    1.557     0  18:00        22.5        36.3       0.016
  psk1                 OUTFALL      0.000    1.181     0  18:00           0        27.1       0.000
  psk2                 OUTFALL      0.000    2.657     0  18:00           0        73.6       0.000
  psk3                 OUTFALL      0.000    4.856     0  18:00           0         117       0.000
  psk4                 OUTFALL      0.000    0.000     0  00:00           0           0       0.000 ltr
  psk5                 OUTFALL      0.000    0.959     0  18:00           0        26.3       0.000
  psk6                 OUTFALL      0.000    0.858     0  18:00           0          22       0.000
  psk7                 OUTFALL      0.000    3.211     0  18:00           0         113       0.000
  psk8                 OUTFALL      0.000    0.000     0  00:00           0           0       0.000 ltr
  
  
  **********************
  Node Surcharge Summary
  **********************
  
  Surcharging occurs when water rises above the top of the highest conduit.
  ---------------------------------------------------------------------
                                               Max. Height   Min. Depth
                                   Hours       Above Crown    Below Rim
  Node                 Type      Surcharged         Meters       Meters
  ---------------------------------------------------------------------
  jd2                  JUNCTION        7.67          2.200        0.000
  jd3                  JUNCTION       23.21          2.200        0.000
  jd4                  JUNCTION       12.61          2.200        0.000
  jd8                  JUNCTION       21.74          2.200        0.000
  jd9                  JUNCTION       15.10          2.200        0.000
  jd10                 JUNCTION       23.31          2.400        0.000
  jd12                 JUNCTION       23.36          2.400        0.000
  jd14                 JUNCTION        6.52          2.400        0.000
  jd17                 JUNCTION       21.95          2.200        0.000
  jd18                 JUNCTION        7.04          2.000        0.000
  jd19                 JUNCTION       11.29          2.200        0.000
  jd21                 JUNCTION       23.23          2.200        0.000
  jd22                 JUNCTION       23.12          2.400        0.000
  jd23                 JUNCTION        1.93          2.000        0.000
  jd25                 JUNCTION        1.52          2.000        0.000
  jd26                 JUNCTION        7.24          2.400        0.000
  jd27                 JUNCTION        1.63          2.400        0.000
  jd28                 JUNCTION       23.44          2.400        0.000
  jd31                 JUNCTION       23.01          2.200        0.000
  jd32                 JUNCTION       23.36          2.200        0.000
  jd34                 JUNCTION        1.98          2.400        0.000
  jd35                 JUNCTION       23.54          2.400        0.000
  jd36                 JUNCTION        8.26          2.400        0.000
  jd37                 JUNCTION        8.03          2.400        0.000
  jd38                 JUNCTION        1.85          2.000        0.000
  jd39                 JUNCTION       23.22          2.000        0.000
  jd40                 JUNCTION       10.90          2.200        0.000
  jd41                 JUNCTION       22.87          1.000        0.000
  jd43                 JUNCTION        9.69          2.200        0.000
  jd44                 JUNCTION       10.43          2.000        0.000
  jd45                 JUNCTION       23.28          2.000        0.000
  jd46                 JUNCTION        1.75          2.200        0.000
  jd49                 JUNCTION        1.35          2.200        0.000
  jd50                 JUNCTION       23.46          2.200        0.000
  jd51                 JUNCTION       22.82          1.350        0.000
  jd52                 JUNCTION        7.63          1.500        0.000
  jd53                 JUNCTION        8.03          1.800        0.000
  jd55                 JUNCTION       11.42          1.500        0.000
  jd59                 JUNCTION       22.75          1.500        0.000
  jd60                 JUNCTION       23.39          2.400        0.000
  jd64                 JUNCTION       22.77          1.800        0.000
  jd65                 JUNCTION       15.43          2.400        0.000
  jd66                 JUNCTION       23.29          2.200        0.000
  jd79                 JUNCTION       23.41          2.400        0.000
  jd80                 JUNCTION       22.39          2.400        0.000
  jd83                 JUNCTION       23.59          2.400        0.000
  jd84                 JUNCTION        2.87          2.400        0.000
  jd85                 JUNCTION       23.33          2.400        0.000
  jd87                 JUNCTION       23.35          2.400        0.000
  jd93                 JUNCTION        8.26          2.200        0.000
  jd94                 JUNCTION        7.11          2.200        0.000
  jd95                 JUNCTION        5.12          2.200        0.000
  jd96                 JUNCTION       23.43          2.200        0.000
  jd97                 JUNCTION        4.87          2.200        0.000
  jd98                 JUNCTION        0.70          1.565        0.835
  jd99                 JUNCTION       23.28          2.400        0.000
  jd102                JUNCTION        1.80          2.400        0.000
  jd106                JUNCTION       23.03          2.000        0.000
  jd108                JUNCTION       23.38          0.711        1.289
  jd110                JUNCTION       23.33          2.000        0.000
  jd114                JUNCTION       23.31          2.000        0.000
  jd117                JUNCTION       23.22          2.200        0.000
  jd120                JUNCTION        0.71          2.400        0.000
  jd122                JUNCTION       23.25          2.200        0.000
  jd123                JUNCTION       23.19          2.200        0.000
  jd124                JUNCTION       23.65          2.400        0.000
  jd125                JUNCTION       12.22          2.200        0.000
  jd126                JUNCTION       23.56          2.400        0.000
  jd136                JUNCTION        0.72          2.200        0.000
  
  
  *********************
  Node Flooding Summary
  *********************
  
  Flooding refers to all water that overflows a node, whether it ponds or not.
  --------------------------------------------------------------------------
                                                             Total   Maximum
                                 Maximum   Time of Max       Flood    Ponded
                        Hours       Rate    Occurrence      Volume     Depth
  Node                 Flooded       CMS   days hr:min    10^6 ltr    Meters
  --------------------------------------------------------------------------
  jd2                     3.86     1.066      0  18:00       5.636     0.000
  jd3                    23.21     3.823      0  18:00     129.458     0.000
  jd4                    11.24     2.286      0  18:00      33.861     0.000
  jd8                    10.91     0.430      0  18:00       6.840     0.000
  jd9                    10.83     0.581      0  18:00      12.676     0.000
  jd10                   23.31     1.544      0  18:00      35.951     0.000
  jd12                   23.36     3.049      0  18:00      69.082     0.000
  jd14                    2.16     1.469      0  18:00       7.114     0.000
  jd17                   13.20     4.328      0  18:00      83.082     0.000
  jd18                    4.14     1.591      0  18:00       9.043     0.000
  jd19                    8.99     2.409      0  18:00      27.862     0.000
  jd21                   23.02     3.763      0  18:00     122.114     0.000
  jd22                    9.13     1.512      0  18:00      20.984     0.000
  jd23                    1.41     0.942      0  18:00       3.174     0.000
  jd25                    0.02     0.893      0  17:14       0.025     0.000
  jd26                    4.81     1.845      0  18:00      11.757     0.000
  jd27                    0.78     0.392      0  17:12       0.681     0.000
  jd28                   23.44     4.412      0  18:00     109.240     0.000
  jd31                    0.01     0.623      0  01:59       0.005     0.000
  jd32                   23.36     5.310      0  18:00     167.851     0.000
  jd34                    1.73     0.593      0  18:00       2.322     0.000
  jd35                   23.54     4.377      0  18:00     145.951     0.000
  jd36                    7.86     2.749      0  18:00      27.255     0.000
  jd37                    7.78     2.581      0  18:00      21.812     0.000
  jd38                    0.70     0.678      0  17:11       0.490     0.000
  jd39                   23.22     6.016      0  18:00     194.802     0.000
  jd40                   10.03     3.889      0  18:00      62.759     0.000
  jd41                   22.86     9.238      0  18:00     247.286     0.000
  jd43                    9.30     5.011      0  18:00      74.131     0.000
  jd44                    8.80     4.868      0  18:00      57.174     0.000
  jd45                   23.28     4.625      0  18:00     169.662     0.000
  jd46                    1.33     0.286      0  17:15       0.773     0.000
  jd49                    1.24     0.903      0  18:00       2.367     0.000
  jd50                   23.46     8.888      0  18:00     276.997     0.000
  jd51                   22.82     4.665      0  18:00     109.034     0.000
  jd52                    0.03     2.912      0  07:15       0.126     0.000
  jd53                    2.93     2.182      0  18:00      11.603     0.000
  jd55                    7.55     5.085      0  18:00      61.706     0.000
  jd59                   22.75     3.242      0  18:00      78.201     0.000
  jd60                   23.39     2.635      0  18:00      61.095     0.000
  jd64                    0.84     0.486      0  02:15       0.400     0.000
  jd65                   15.07    10.046      0  18:00     176.058     0.000
  jd66                   23.29     4.219      0  18:00      97.870     0.000
  jd79                   21.87     3.287      0  18:00      82.717     0.000
  jd80                   18.71     3.360      0  18:00      74.571     0.000
  jd83                   23.59     2.880      0  18:00      68.209     0.000
  jd84                    1.93     1.085      0  18:00       5.353     0.000
  jd85                   23.33     1.087      0  18:00      25.216     0.000
  jd87                   23.34     1.314      0  18:00      30.455     0.000
  jd93                    4.27     0.969      0  18:00       6.440     0.000
  jd94                    0.01     0.699      0  07:17       0.013     0.000
  jd95                    0.02     0.202      0  17:03       0.004     0.000
  jd96                   23.43     1.416      0  18:00      32.846     0.000
  jd97                    1.79     0.390      0  18:00       1.692     0.000
  jd99                   23.28     0.634      0  18:00      19.416     0.000
  jd102                   1.38     0.135      0  18:00       0.375     0.000
  jd106                  23.03     2.544      0  18:00      60.896     0.000
  jd110                  23.33     1.334      0  18:00      30.981     0.000
  jd114                  23.23     4.426      0  18:00     173.389     0.000
  jd117                   1.91     0.717      0  18:00       3.285     0.000
  jd120                   0.01     0.038      0  17:19       0.000     0.000
  jd122                  23.20     6.765      0  18:00     196.880     0.000
  jd123                  22.78     4.487      0  18:00     151.508     0.000
  jd124                  23.65     4.333      0  18:00     143.396     0.000
  jd125                   9.45     2.463      0  18:00      32.178     0.000
  jd126                  23.56     5.475      0  18:00     142.635     0.000
  jd136                   0.56     0.138      0  17:19       0.014     0.000
  
  
  ***********************
  Outfall Loading Summary
  ***********************
  
  -----------------------------------------------------------
                         Flow       Avg       Max       Total
                         Freq      Flow      Flow      Volume
  Outfall Node           Pcnt       CMS       CMS    10^6 ltr
  -----------------------------------------------------------
  psk1                  99.16     0.398     1.181      27.126
  psk2                  99.16     1.077     2.657      73.570
  psk3                  99.16     1.718     4.856     117.227
  psk4                   0.00     0.000     0.000       0.000
  psk5                  99.16     0.381     0.959      26.343
  psk6                  99.16     0.320     0.858      22.041
  psk7                  99.16     1.555     3.211     113.022
  psk8                   0.00     0.000     0.000       0.000
  -----------------------------------------------------------
  System                74.37     5.450     0.000     379.329
  
  
  ********************
  Link Flow Summary
  ********************
  
  -----------------------------------------------------------------------------
                                 Maximum  Time of Max   Maximum    Max/    Max/
                                  |Flow|   Occurrence   |Veloc|    Full    Full
  Link                 Type          CMS  days hr:min     m/sec    Flow   Depth
  -----------------------------------------------------------------------------
  GQ1                  CONDUIT     0.355     0  07:19      1.98    0.93    0.72
  GQ2                  CONDUIT     1.804     0  18:00      2.80    0.86    0.79
  GQ3                  CONDUIT     1.181     0  18:00      7.53    0.04    0.14
  GQ4                  CONDUIT     0.510     0  05:27      1.80    1.00    1.00
  GQ5                  CONDUIT     1.208     0  08:53      2.40    1.00    1.00
  GQ6                  CONDUIT     0.518     0  18:00      1.46    0.23    0.66
  GQ7                  CONDUIT     1.675     0  08:06      3.57    1.00    1.00
  GQ8                  CONDUIT     1.045     0  17:37      2.08    1.00    1.00
  GQ9                  CONDUIT     2.837     0  17:43      5.74    1.00    1.00
  GQ10                 CONDUIT     1.135     0  20:22      4.10    1.04    1.00
  GQ11                 CONDUIT     0.377     0  18:00      2.06    0.40    0.68
  GQ12                 CONDUIT     0.474     0  18:00      2.07    0.52    0.75
  GQ13                 CONDUIT     0.261     0  18:00      0.80    0.12    0.62
  GQ14                 CONDUIT     0.148     0  18:00      1.30    0.21    0.28
  GQ15                 CONDUIT     0.248     0  17:15      4.43    1.00    0.82
  GQ16                 CONDUIT     2.008     0  18:00      4.11    0.97    0.64
  GQ17                 CONDUIT     0.706     0  18:00      2.38    0.22    0.57
  GQ18                 CONDUIT     1.114     0  18:00      2.50    5.02    0.91
  GQ19                 CONDUIT     0.961     0  18:00      2.87    0.11    0.44
  GQ20                 CONDUIT     0.211     0  18:00      0.53    0.11    0.61
  GQ21                 CONDUIT     0.781     0  18:00      1.63    0.24    0.67
  GQ22                 CONDUIT     0.791     0  18:00      1.89    0.24    0.67
  GQ23                 CONDUIT     1.860     0  18:00      2.37    0.91    1.00
  GQ24                 CONDUIT     2.020     0  17:26      4.02    1.00    1.00
  GQ25                 CONDUIT     1.066     0  18:00      4.12    1.20    0.90
  GQ26                 CONDUIT     0.781     0  17:14      2.97    0.91    0.90
  GQ27                 CONDUIT     0.997     0  07:37      3.52    1.00    1.00
  GQ28                 CONDUIT     0.382     0  18:00      0.88    0.41    0.80
  GQ29                 CONDUIT     1.797     0  18:00      3.57    0.84    1.00
  GQ30                 CONDUIT     0.824     0  05:11      2.91    1.00    1.00
  GQ31                 CONDUIT     0.747     0  07:39      2.64    1.00    1.00
  GQ32                 CONDUIT     0.739     0  07:25      2.97    1.19    1.00
  GQ33                 CONDUIT     1.434     0  07:24      5.07    1.00    1.00
  GQ34                 CONDUIT     0.528     0  17:35      1.92    0.83    0.96
  GQ35                 CONDUIT     0.711     0  07:11      2.52    1.32    1.00
  GQ36                 CONDUIT     0.974     0  07:10      3.45    1.21    1.00
  GQ37                 CONDUIT     0.699     0  17:32      2.47    1.00    1.00
  GQ38                 CONDUIT     0.212     0  18:00      0.95    0.30    0.74
  GQ39                 CONDUIT     0.782     0  07:25      2.76    1.00    1.00
  GQ40                 CONDUIT     0.804     0  17:37      2.84    1.00    1.00
  GQ41                 CONDUIT     2.160     0  17:36      2.75    1.00    1.00
  GQ42                 CONDUIT     1.359     0  05:30      2.70    1.00    1.00
  GQ43                 CONDUIT     2.311     0  05:10      4.70    1.03    1.00
  GQ44                 CONDUIT     0.946     0  09:28      1.88    1.00    1.00
  GQ45                 CONDUIT     1.505     0  18:00      3.47    0.61    0.80
  GQ46                 CONDUIT     1.068     0  16:39      2.12    1.00    1.00
  GQ47                 CONDUIT     0.320     0  18:00      1.54    0.30    0.69
  GQ48                 CONDUIT     0.318     0  18:00      1.53    0.30    0.69
  GQ49                 CONDUIT     1.368     0  18:00      5.98    0.52    0.75
  GQ50                 CONDUIT     0.394     0  18:00      1.72    0.52    0.75
  GQ51                 CONDUIT     0.995     0  08:16      3.62    1.52    1.00
  GQ52                 CONDUIT     0.854     0  18:03      1.70    1.14    1.00
  GQ53                 CONDUIT     2.225     0  05:55      2.83    1.00    1.00
  GQ54                 CONDUIT     0.798     0  18:00      3.28    0.68    0.80
  GQ55                 CONDUIT     0.595     0  18:00      2.73    0.40    0.72
  GQ56                 CONDUIT     2.003     0  15:16      4.21    1.09    1.00
  GQ57                 CONDUIT     1.184     0  18:00      2.61    0.77    0.85
  GQ58                 CONDUIT     2.594     0  18:00      5.72    0.81    0.85
  GQ59                 CONDUIT     1.203     0  07:43      2.39    1.00    1.00
  GQ60                 CONDUIT     2.874     0  07:15      1.74    0.69    1.00
  GQ61                 CONDUIT     0.471     0  18:00      0.44    0.06    0.58
  GQ62                 CONDUIT     1.063     0  18:00      0.78    0.11    0.61
  GQ63                 CONDUIT     2.452     0  18:00      1.27    0.07    0.59
  GQ64                 CONDUIT     0.173     0  18:00      1.58    0.13    0.43
  GQ65                 CONDUIT     0.075     0  18:00      0.40    0.13    0.62
  GQ66                 CONDUIT     0.305     0  18:00      0.96    0.09    0.60
  GQ67                 CONDUIT     1.442     0  18:01      1.28    1.00    1.00
  GQ68                 CONDUIT     1.717     0  18:00      2.61    0.55    0.78
  GQ69                 CONDUIT     2.764     0  18:00      5.78    0.99    0.90
  GQ70                 CONDUIT     0.858     0  18:00      9.40    0.12    0.24
  GQ71                 CONDUIT     0.959     0  18:00      6.65    0.23    0.33
  GQ72                 CONDUIT     3.211     0  18:00      5.87    0.77    0.66
  GQ73                 CONDUIT     2.657     0  18:00     14.65    0.17    0.28
  GQ74                 CONDUIT     0.624     0  18:00      1.62    0.11    0.55
  GQ75                 CONDUIT     0.598     0  18:00      1.12    0.17    0.64
  GQ76                 CONDUIT     4.856     0  18:00      6.71    1.05    0.94
  GQ77                 CONDUIT     0.000     0  00:00      0.00    0.00    0.36
  GQ78                 CONDUIT     0.916     0  08:17      3.24    1.00    1.00
  GQ79                 CONDUIT     0.253     0  17:14      1.08    0.54    0.91
  GQ80                 CONDUIT     0.608     0  08:54      2.15    1.00    1.00
  GQ81                 CONDUIT     0.502     0  01:57      1.78    3.18    1.00
  GQ82                 CONDUIT     1.064     0  18:00      4.30    0.73    0.82
  GQ83                 CONDUIT     1.148     0  18:00      4.63    0.73    0.82
  GQ84                 CONDUIT     1.304     0  16:00      4.71    1.03    1.00
  GQ85                 CONDUIT     0.579     0  07:29      2.05    1.00    1.00
  GQ86                 CONDUIT     0.312     0  18:00      1.68    0.13    0.62
  GQ87                 CONDUIT     0.110     0  18:00      0.58    0.16    0.64
  GQ88                 CONDUIT     0.769     0  18:00      3.16    0.68    0.80
  GQ89                 CONDUIT     0.635     0  18:00      2.31    0.84    0.94
  GQ90                 CONDUIT     0.647     0  18:00      2.69    0.65    0.79
  GQ91                 CONDUIT     0.544     0  18:00      1.99    0.67    0.93
  GQ92                 CONDUIT     0.968     0  07:16      2.16    1.39    1.00
  GQ93                 CONDUIT     0.972     0  18:00      1.93    0.83    1.00
  GQ94                 CONDUIT     1.242     0  07:15      2.47    1.47    1.00
  GQ95                 CONDUIT     0.355     0  18:00      1.12    0.09    0.60
  GQ96                 CONDUIT     0.856     0  07:17      1.70    1.46    1.00
  GQ97                 CONDUIT     0.640     0  18:00      2.30    1.15    0.97
  GQ98                 CONDUIT     0.326     0  18:00      1.17    0.46    0.97
  GQ99                 CONDUIT     1.067     0  18:00      1.00    0.06    0.58
  GQ100                CONDUIT     0.700     0  18:00      3.31    1.20    0.71
  GQ101                CONDUIT     0.575     0  18:00      2.60    0.43    0.73
  GQ102                CONDUIT     2.237     0  18:00      5.18    0.68    0.80
  GQ103                CONDUIT     0.641     0  18:00      2.27    0.99    1.00
  GQ104                CONDUIT     1.389     0  07:24      5.02    1.01    1.00
  GQ105                CONDUIT     0.594     0  01:48      1.18    1.89    1.00
  GQ106                CONDUIT     0.602     0  18:00      2.54    0.60    0.78
  GQ107                CONDUIT     1.114     0  07:32      3.94    1.00    1.00
  GQ108                CONDUIT     0.829     0  17:39      1.65    1.00    1.00
  GQ109                CONDUIT     0.448     0  18:00      1.74    0.61    0.86
  GQ110                CONDUIT     0.777     0  18:00      1.54    0.11    0.61
  GQ111                CONDUIT     0.720     0  18:00      2.79    0.66    0.86
  GQ112                CONDUIT     2.135     0  18:00      3.49    0.38    0.58
  GQ113                CONDUIT     1.180     0  18:00      4.89    0.89    0.80
  GQ114                CONDUIT     0.706     0  18:00      1.07    0.29    0.78
  GQ115                CONDUIT     0.306     0  18:00      1.17    0.04    0.28
  GQ116                CONDUIT     0.438     0  18:00      0.92    0.06    0.58
  GQ117                CONDUIT     1.549     0  18:00      4.94    0.97    0.64
  GQ118                CONDUIT     0.588     0  18:00      2.42    0.20    0.65
  GQ119                CONDUIT     2.302     0  07:39      4.58    1.00    1.00
  GQ120                CONDUIT     0.000     0  00:00      0.00    0.00    0.50
  GQ121                CONDUIT     1.414     0  17:23      2.81    1.00    1.00
  GQ122                CONDUIT     0.877     0  18:00      2.60    0.16    0.64
  GQ123                CONDUIT     0.599     0  18:00      2.91    0.29    0.68
  GQ124                CONDUIT     0.367     0  18:00      1.20    0.16    0.64
  GQ125                CONDUIT     0.748     0  18:00      2.65    0.84    1.00
  GQ126                CONDUIT     0.925     0  18:00      3.46    0.88    0.90
  GQ127                CONDUIT     0.869     0  07:12      1.75    1.11    1.00
  GQ128                CONDUIT     3.133     0  18:00      3.02    0.68    0.86
  GQ129                CONDUIT     1.313     0  17:27      2.61    1.00    1.00
  GQ130                CONDUIT     1.073     0  07:43      3.79    1.00    1.00
  GQ131                CONDUIT     0.862     0  07:26      3.05    1.00    1.00
  
  
  ***************************
  Flow Classification Summary
  ***************************
  
  -------------------------------------------------------------------------------------
                      Adjusted    ---------- Fraction of Time in Flow Class ---------- 
                       /Actual         Up    Down  Sub   Sup   Up    Down  Norm  Inlet 
  Conduit               Length    Dry  Dry   Dry   Crit  Crit  Crit  Crit  Ltd   Ctrl  
  -------------------------------------------------------------------------------------
  GQ1                     1.00   0.01  0.00  0.00  0.13  0.86  0.00  0.00  0.00  0.00
  GQ2                     1.00   0.01  0.00  0.00  0.05  0.94  0.00  0.00  0.94  0.00
  GQ3                     1.00   0.01  0.00  0.00  0.00  0.99  0.00  0.00  0.26  0.00
  GQ4                     1.00   0.01  0.00  0.00  0.99  0.00  0.00  0.00  0.24  0.00
  GQ5                     1.00   0.01  0.00  0.00  0.99  0.00  0.00  0.00  0.57  0.00
  GQ6                     1.00   0.01  0.00  0.00  0.99  0.00  0.00  0.00  0.96  0.00
  GQ7                     1.00   0.01  0.00  0.00  0.61  0.38  0.00  0.00  0.08  0.00
  GQ8                     1.00   0.01  0.00  0.00  0.99  0.00  0.00  0.00  0.87  0.00
  GQ9                     1.00   0.01  0.00  0.00  0.51  0.48  0.00  0.00  0.88  0.00
  GQ10                    1.00   0.01  0.00  0.00  0.79  0.21  0.00  0.00  0.28  0.00
  GQ11                    1.00   0.01  0.00  0.00  0.21  0.78  0.00  0.00  0.96  0.00
  GQ12                    1.00   0.01  0.00  0.00  0.99  0.00  0.00  0.00  0.96  0.00
  GQ13                    1.00   0.01  0.00  0.00  0.99  0.00  0.00  0.00  0.96  0.00
  GQ14                    1.00   0.01  0.00  0.00  0.89  0.10  0.00  0.00  0.00  0.00
  GQ15                    1.00   0.01  0.00  0.00  0.00  0.99  0.00  0.00  0.01  0.00
  GQ16                    1.00   0.01  0.00  0.00  0.00  0.99  0.00  0.00  0.00  0.00
  GQ17                    1.00   0.01  0.00  0.00  0.53  0.46  0.00  0.00  0.96  0.00
  GQ18                    1.00   0.01  0.00  0.00  0.89  0.10  0.00  0.00  0.01  0.00
  GQ19                    1.00   0.01  0.00  0.00  0.41  0.58  0.00  0.00  0.96  0.00
  GQ20                    1.00   0.01  0.00  0.00  0.99  0.00  0.00  0.00  0.96  0.00
  GQ21                    1.00   0.01  0.00  0.00  0.66  0.34  0.00  0.00  0.96  0.00
  GQ22                    1.00   0.01  0.00  0.00  0.13  0.86  0.00  0.00  0.96  0.00
  GQ23                    1.00   0.01  0.00  0.00  0.14  0.85  0.00  0.00  0.33  0.00
  GQ24                    1.00   0.01  0.00  0.00  0.77  0.23  0.00  0.00  0.65  0.00
  GQ25                    1.00   0.01  0.00  0.00  0.00  0.99  0.00  0.00  0.00  0.00
  GQ26                    1.00   0.01  0.00  0.00  0.01  0.99  0.00  0.00  0.88  0.00
  GQ27                    1.00   0.01  0.00  0.00  0.63  0.36  0.00  0.00  0.59  0.00
  GQ28                    1.00   0.01  0.00  0.00  0.99  0.00  0.00  0.00  0.64  0.00
  GQ29                    1.00   0.01  0.00  0.00  0.99  0.00  0.00  0.00  0.03  0.00
  GQ30                    1.00   0.01  0.00  0.00  0.99  0.01  0.00  0.00  0.02  0.00
  GQ31                    1.00   0.01  0.00  0.00  0.99  0.00  0.00  0.00  0.64  0.00
  GQ32                    1.00   0.01  0.00  0.00  0.12  0.87  0.00  0.00  0.01  0.00
  GQ33                    1.00   0.01  0.00  0.00  0.63  0.36  0.00  0.00  0.52  0.00
  GQ34                    1.00   0.01  0.00  0.00  0.99  0.00  0.00  0.00  0.86  0.00
  GQ35                    1.00   0.01  0.00  0.00  0.51  0.48  0.00  0.00  0.53  0.00
  GQ36                    1.00   0.01  0.00  0.00  0.46  0.53  0.00  0.00  0.61  0.00
  GQ37                    1.00   0.01  0.00  0.00  0.99  0.00  0.00  0.00  0.61  0.00
  GQ38                    1.00   0.01  0.00  0.00  0.99  0.00  0.00  0.00  0.64  0.00
  GQ39                    1.00   0.01  0.00  0.00  0.98  0.01  0.00  0.00  0.61  0.00
  GQ40                    1.00   0.01  0.00  0.00  0.41  0.58  0.00  0.00  0.73  0.00
  GQ41                    1.00   0.01  0.00  0.00  0.99  0.00  0.00  0.00  0.52  0.00
  GQ42                    1.00   0.01  0.00  0.00  0.99  0.00  0.00  0.00  0.45  0.00
  GQ43                    1.00   0.01  0.00  0.00  0.48  0.51  0.00  0.00  0.60  0.00
  GQ44                    1.00   0.01  0.00  0.00  0.99  0.00  0.00  0.00  0.18  0.00
  GQ45                    1.00   0.01  0.00  0.00  0.52  0.48  0.00  0.00  0.88  0.00
  GQ46                    1.00   0.01  0.00  0.00  0.88  0.11  0.00  0.00  0.42  0.00
  GQ47                    1.00   0.01  0.00  0.00  0.99  0.00  0.00  0.00  0.96  0.00
  GQ48                    1.00   0.01  0.00  0.00  0.99  0.00  0.00  0.00  0.96  0.00
  GQ49                    1.00   0.01  0.00  0.00  0.47  0.52  0.00  0.00  0.96  0.00
  GQ50                    1.00   0.01  0.00  0.00  0.99  0.00  0.00  0.00  0.96  0.00
  GQ51                    1.00   0.01  0.00  0.00  0.25  0.75  0.00  0.00  0.53  0.00
  GQ52                    1.00   0.01  0.00  0.00  0.99  0.00  0.00  0.00  0.84  0.00
  GQ53                    1.00   0.01  0.00  0.00  0.99  0.00  0.00  0.00  0.47  0.00
  GQ54                    1.00   0.01  0.00  0.00  0.83  0.16  0.00  0.00  0.96  0.00
  GQ55                    1.00   0.01  0.00  0.00  0.87  0.12  0.00  0.00  0.96  0.00
  GQ56                    1.00   0.01  0.00  0.00  0.55  0.44  0.00  0.00  0.47  0.00
  GQ57                    1.00   0.01  0.00  0.00  0.99  0.00  0.00  0.00  0.93  0.00
  GQ58                    1.00   0.01  0.00  0.00  0.52  0.47  0.00  0.00  0.94  0.00
  GQ59                    1.00   0.01  0.00  0.00  0.99  0.00  0.00  0.00  0.47  0.00
  GQ60                    1.00   0.01  0.00  0.00  0.99  0.00  0.00  0.00  0.04  0.00
  GQ61                    1.00   0.01  0.00  0.00  0.99  0.00  0.00  0.00  0.96  0.00
  GQ62                    1.00   0.01  0.00  0.00  0.99  0.00  0.00  0.00  0.96  0.00
  GQ63                    1.00   0.01  0.00  0.00  0.99  0.00  0.00  0.00  0.96  0.00
  GQ64                    1.00   0.01  0.00  0.00  0.15  0.85  0.00  0.00  0.96  0.00
  GQ65                    1.00   0.01  0.00  0.00  0.99  0.00  0.00  0.00  0.96  0.00
  GQ66                    1.00   0.01  0.00  0.00  0.99  0.00  0.00  0.00  0.96  0.00
  GQ67                    1.00   0.01  0.00  0.00  0.99  0.00  0.00  0.00  0.01  0.00
  GQ68                    1.00   0.01  0.00  0.00  0.99  0.00  0.00  0.00  0.93  0.00
  GQ69                    1.00   0.01  0.00  0.00  0.49  0.50  0.00  0.00  0.96  0.00
  GQ70                    1.00   0.01  0.00  0.00  0.00  0.99  0.00  0.00  0.00  0.00
  GQ71                    1.00   0.01  0.00  0.00  0.00  0.99  0.00  0.00  0.08  0.00
  GQ72                    1.00   0.01  0.00  0.00  0.00  0.99  0.00  0.00  0.37  0.00
  GQ73                    1.00   0.01  0.00  0.00  0.00  0.99  0.00  0.00  0.00  0.00
  GQ74                    1.00   0.01  0.00  0.00  0.95  0.05  0.00  0.00  0.96  0.00
  GQ75                    1.00   0.01  0.00  0.00  0.99  0.00  0.00  0.00  0.96  0.00
  GQ76                    1.00   0.01  0.00  0.00  0.00  0.99  0.00  0.00  0.30  0.00
  GQ77                    1.00   0.01  0.99  0.00  0.00  0.00  0.00  0.00  0.00  0.00
  GQ78                    1.00   0.01  0.00  0.00  0.88  0.11  0.00  0.00  0.53  0.00
  GQ79                    1.00   0.01  0.00  0.00  0.99  0.00  0.00  0.00  0.02  0.00
  GQ80                    1.00   0.01  0.00  0.00  0.99  0.00  0.00  0.00  0.42  0.00
  GQ81                    1.00   0.01  0.00  0.00  0.99  0.00  0.00  0.00  0.00  0.00
  GQ82                    1.00   0.01  0.00  0.00  0.53  0.46  0.00  0.00  0.96  0.00
  GQ83                    1.00   0.01  0.00  0.00  0.00  0.99  0.00  0.00  0.96  0.00
  GQ84                    1.00   0.01  0.00  0.00  0.23  0.76  0.00  0.00  0.78  0.00
  GQ85                    1.00   0.01  0.00  0.00  0.99  0.00  0.00  0.00  0.46  0.00
  GQ86                    1.00   0.01  0.00  0.00  0.99  0.00  0.00  0.00  0.96  0.00
  GQ87                    1.00   0.01  0.00  0.00  0.99  0.00  0.00  0.00  0.96  0.00
  GQ88                    1.00   0.01  0.00  0.00  0.86  0.13  0.00  0.00  0.95  0.00
  GQ89                    1.00   0.01  0.00  0.00  0.99  0.00  0.00  0.00  0.89  0.00
  GQ90                    1.00   0.01  0.00  0.00  0.88  0.12  0.00  0.00  0.96  0.00
  GQ91                    1.00   0.01  0.00  0.00  0.99  0.00  0.00  0.00  0.88  0.00
  GQ92                    1.00   0.01  0.00  0.00  0.94  0.05  0.00  0.00  0.03  0.00
  GQ93                    1.00   0.01  0.00  0.00  0.99  0.00  0.00  0.00  0.64  0.00
  GQ94                    1.00   0.01  0.00  0.00  0.64  0.35  0.00  0.00  0.02  0.00
  GQ95                    1.00   0.01  0.00  0.00  0.99  0.00  0.00  0.00  0.96  0.00
  GQ96                    1.00   0.01  0.00  0.00  0.99  0.00  0.00  0.00  0.41  0.00
  GQ97                    1.00   0.01  0.00  0.00  0.05  0.94  0.00  0.00  0.45  0.00
  GQ98                    1.00   0.01  0.00  0.00  0.99  0.00  0.00  0.00  0.51  0.00
  GQ99                    1.00   0.01  0.00  0.00  0.99  0.00  0.00  0.00  0.96  0.00
  GQ100                   1.00   0.01  0.00  0.00  0.00  0.99  0.00  0.00  0.00  0.00
  GQ101                   1.00   0.01  0.00  0.00  0.88  0.12  0.00  0.00  0.96  0.00
  GQ102                   1.00   0.01  0.00  0.00  0.53  0.46  0.00  0.00  0.96  0.00
  GQ103                   1.00   0.01  0.00  0.00  0.99  0.00  0.00  0.00  0.64  0.00
  GQ104                   1.00   0.01  0.00  0.00  0.48  0.51  0.00  0.00  0.88  0.00
  GQ105                   1.00   0.01  0.00  0.00  0.99  0.00  0.00  0.00  0.02  0.00
  GQ106                   1.00   0.01  0.00  0.00  0.88  0.11  0.00  0.00  0.96  0.00
  GQ107                   1.00   0.01  0.00  0.00  0.79  0.20  0.00  0.00  0.63  0.00
  GQ108                   1.00   0.01  0.00  0.00  0.99  0.00  0.00  0.00  0.03  0.00
  GQ109                   1.00   0.01  0.00  0.00  0.96  0.04  0.00  0.00  0.88  0.00
  GQ110                   1.00   0.01  0.00  0.00  0.99  0.00  0.00  0.00  0.96  0.00
  GQ111                   1.00   0.01  0.00  0.00  0.88  0.11  0.00  0.00  0.88  0.00
  GQ112                   1.00   0.01  0.00  0.00  0.00  0.99  0.00  0.00  0.95  0.00
  GQ113                   1.00   0.01  0.00  0.00  0.00  0.99  0.00  0.00  0.95  0.00
  GQ114                   1.00   0.01  0.00  0.00  0.99  0.00  0.00  0.00  0.02  0.00
  GQ115                   1.00   0.01  0.00  0.00  0.99  0.01  0.00  0.00  0.96  0.00
  GQ116                   1.00   0.01  0.00  0.00  0.99  0.00  0.00  0.00  0.96  0.00
  GQ117                   1.00   0.01  0.00  0.00  0.00  0.99  0.00  0.00  0.00  0.00
  GQ118                   1.00   0.01  0.00  0.00  0.28  0.71  0.00  0.00  0.96  0.00
  GQ119                   1.00   0.01  0.00  0.00  0.84  0.15  0.00  0.00  0.51  0.00
  GQ120                   1.00   0.01  0.01  0.00  0.98  0.00  0.00  0.00  0.00  0.00
  GQ121                   1.00   0.01  0.00  0.00  0.99  0.00  0.00  0.00  0.03  0.00
  GQ122                   1.00   0.01  0.00  0.00  0.87  0.12  0.00  0.00  0.96  0.00
  GQ123                   1.00   0.01  0.00  0.00  0.85  0.14  0.00  0.00  0.96  0.00
  GQ124                   1.00   0.01  0.00  0.00  0.99  0.00  0.00  0.00  0.96  0.00
  GQ125                   1.00   0.01  0.00  0.00  0.99  0.00  0.00  0.00  0.87  0.00
  GQ126                   1.00   0.01  0.00  0.00  0.72  0.27  0.00  0.00  0.90  0.00
  GQ127                   1.00   0.01  0.00  0.00  0.99  0.00  0.00  0.00  0.43  0.00
  GQ128                   1.00   0.01  0.00  0.00  0.51  0.48  0.00  0.00  0.86  0.00
  GQ129                   1.00   0.01  0.00  0.00  0.99  0.00  0.00  0.00  0.24  0.00
  GQ130                   1.00   0.01  0.00  0.00  0.79  0.21  0.00  0.00  0.24  0.00
  GQ131                   1.00   0.01  0.00  0.00  0.92  0.07  0.00  0.00  0.59  0.00
  
  
  *************************
  Conduit Surcharge Summary
  *************************
  
  ----------------------------------------------------------------------------
                                                           Hours        Hours 
                         --------- Hours Full --------   Above Full   Capacity
  Conduit                Both Ends  Upstream  Dnstream   Normal Flow   Limited
  ----------------------------------------------------------------------------
  GQ1                         0.01      1.80      0.01      0.01         0.01
  GQ4                        14.31     14.31     23.28      0.01         0.01
  GQ5                         7.67      7.67     23.21      0.01         0.01
  GQ6                         0.01      0.01      7.67      0.01         0.01
  GQ7                        11.11     11.11     12.22      0.01         0.01
  GQ8                         1.35      1.35     11.11      0.01         0.01
  GQ9                         1.35      1.35     23.46      0.01         0.01
  GQ10                       15.43     15.43     23.51      0.83         0.01
  GQ12                        0.01      0.01     22.63      0.01         0.01
  GQ13                        0.01      0.01     12.61      0.01         0.01
  GQ15                        0.01      0.57      0.01      0.01         0.01
  GQ16                        0.01      1.85      0.01      0.01         0.01
  GQ18                        0.01      0.01     21.74     22.27         0.01
  GQ20                        0.01      0.01      7.04      0.01         0.01
  GQ21                        0.01      0.01      7.04      0.01         0.01
  GQ22                        0.01      0.01      1.52      0.01         0.01
  GQ23                        1.52      1.52      1.93      0.01         0.01
  GQ24                        2.12      2.12     23.36      0.01         0.01
  GQ25                        0.01      1.99      0.01      1.94         0.01
  GQ26                        0.01      0.01      2.31      0.01         0.01
  GQ27                        2.31      2.31     23.12      0.01         0.01
  GQ28                        0.01      0.01     23.23      0.01         0.01
  GQ29                       23.01     23.01     23.23      0.01         0.01
  GQ30                       23.12     23.12     23.30      0.01         0.01
  GQ31                        1.99      1.99     23.54      0.01         0.01
  GQ32                        1.63      8.26      1.63      7.22         0.85
  GQ33                        8.26      8.26     23.54      0.01         0.01
  GQ34                        0.01      0.01      8.26      0.01         0.01
  GQ35                        8.00      8.03      8.26      0.26         0.01
  GQ36                        8.01      8.03      8.07      7.60         7.28
  GQ37                        1.63      1.63     23.44      0.01         0.01
  GQ38                        0.01      0.01     23.44      0.01         0.01
  GQ39                        7.24      7.24     22.63      0.01         0.01
  GQ40                        1.63      1.63      7.24      0.01         0.01
  GQ41                        1.85      1.85     23.22      0.01         0.01
  GQ42                       10.90     10.90     23.27      0.01         0.01
  GQ43                        8.44      8.44     10.90      0.21         0.01
  GQ44                       15.10     15.10     21.74      0.01         0.01
  GQ45                        0.01      0.01     11.29      0.01         0.01
  GQ46                       11.29     11.29     15.10      0.01         0.01
  GQ47                        0.01      0.01     23.31      0.01         0.01
  GQ48                        0.01      0.01     23.36      0.01         0.01
  GQ49                        0.01      0.01     23.36      0.01         0.01
  GQ50                        0.01      0.01      6.52      0.01         0.01
  GQ51                        1.80      6.52      1.80      7.44         1.80
  GQ52                        1.75      1.75     23.01      1.42         1.42
  GQ53                       10.43     10.43     23.28      0.01         0.01
  GQ54                        0.01      0.01     23.39      0.01         0.01
  GQ55                        0.01      0.01     23.39      0.01         0.01
  GQ56                        9.63      9.69     11.11      1.47         0.50
  GQ57                        0.01      0.01      9.69      0.01         0.01
  GQ58                        0.01      0.01     23.15      0.01         0.01
  GQ59                       10.90     10.90     23.15      0.01         0.01
  GQ60                        7.63      7.63     11.42      0.01         0.01
  GQ61                        0.01      0.01     22.75      0.01         0.01
  GQ62                        0.01      0.01     22.82      0.01         0.01
  GQ63                        0.01      0.01     22.87      0.01         0.01
  GQ65                        0.01      0.01      0.78      0.01         0.01
  GQ66                        0.01      0.01     22.89      0.01         0.01
  GQ67                       22.77     22.77     22.82      0.01         0.01
  GQ68                        0.01      0.01     23.03      0.01         0.01
  GQ69                        0.01      0.01     23.29      0.01         0.01
  GQ75                        0.01      0.01     23.03      0.01         0.01
  GQ76                        0.01      0.01      0.65      0.65         0.01
  GQ78                        8.35      8.35     23.41      0.01         0.01
  GQ79                        0.01      0.01     23.41      0.01         0.01
  GQ80                        8.35      8.35     22.39      0.01         0.01
  GQ81                       22.28     22.39     22.63     21.89         8.48
  GQ82                        0.01      0.01     22.63      0.01         0.01
  GQ83                        0.01      0.01      2.04      0.01         0.01
  GQ84                        2.87      2.87     11.12      0.66         0.01
  GQ85                        2.87      2.87     23.59      0.01         0.01
  GQ86                        0.01      0.01     23.33      0.01         0.01
  GQ87                        0.01      0.01     23.33      0.01         0.01
  GQ88                        0.01      0.01     23.35      0.01         0.01
  GQ89                        0.01      0.01     23.10      0.01         0.01
  GQ90                        0.01      0.01     22.99      0.01         0.01
  GQ91                        0.01      0.01     23.18      0.01         0.01
  GQ92                        5.08      5.12      7.11      2.11         2.04
  GQ93                        7.11      7.11      8.26      0.01         0.01
  GQ94                        8.26      8.26      8.44      8.37         8.08
  GQ95                        0.01      0.01     23.43      0.01         0.01
  GQ96                        4.84      4.87      5.12      3.65         3.37
  GQ97                        0.01      0.70      0.01      0.85         0.01
  GQ98                        0.01      0.01     23.28      0.01         0.01
  GQ99                        0.01      0.01     22.85      0.01         0.01
  GQ100                       0.01      1.80      0.01      1.68         0.01
  GQ101                       0.01      0.01     23.19      0.01         0.01
  GQ102                       0.01      0.01     23.25      0.01         0.01
  GQ103                       1.91      1.91     23.32      0.01         0.01
  GQ104                       1.63      1.63     23.32      0.10         0.01
  GQ105                      23.19     23.19     23.25     22.38         0.01
  GQ106                       0.01      0.01     23.23      0.01         0.01
  GQ107                       7.24      7.24     23.23      0.01         0.01
  GQ108                      21.95     21.95     23.19      0.01         0.01
  GQ109                       0.01      0.01      7.24      0.01         0.01
  GQ110                       0.01      0.01     23.03      0.01         0.01
  GQ111                       0.01      0.01     23.19      0.01         0.01
  GQ114                       0.01      0.01     23.38      0.01         0.01
  GQ116                       0.01      0.01     23.33      0.01         0.01
  GQ117                       0.01      0.72      0.01      0.01         0.01
  GQ118                       0.01      0.01      0.72      0.01         0.01
  GQ119                       8.78      8.78     23.36      0.01         0.01
  GQ120                       0.01      0.01     23.31      0.01         0.01
  GQ121                      23.22     23.22     23.36      0.01         0.01
  GQ122                       0.01      0.01     23.22      0.01         0.01
  GQ123                       0.01      0.01     23.24      0.01         0.01
  GQ124                       0.01      0.01      0.73      0.01         0.01
  GQ125                       0.71      0.71     23.18      0.01         0.01
  GQ126                       0.01      0.01     23.19      0.01         0.01
  GQ127                       8.44      8.44      8.78      0.37         0.30
  GQ128                       0.01      0.01      8.03      0.01         0.01
  GQ129                      12.22     12.22     23.36      0.01         0.01
  GQ130                      12.89     12.89     23.65      0.01         0.01
  GQ131                       6.52      6.52     23.56      0.01         0.01
  

  Analysis begun on:  Wed Mar 29 16:34:00 2023
  Analysis ended on:  Wed Mar 29 16:34:44 2023
  Total elapsed time: 00:00:44