
  OWA STORM WATER MANAGEMENT MODEL - VERSION v5.1.14 (OWA 2022-07-31)
  --------------------------------------------------------------

  INP file created by DSDAConvertToSwmmTools 
  version 0.0.1 EcoVista 
  Title/Notes: 
  
  
  *********************************************************
  NOTE: The summary statistics displayed in this report are
  based on results found at every computational time step,  
  not just on results from each reporting time step.
  *********************************************************
  
  ****************
  Analysis Options
  ****************
  Flow Units ............... CMS
  Process Models:
    Rainfall/Runoff ........ YES
    RDII ................... NO
    Snowmelt ............... NO
    Groundwater ............ NO
    Flow Routing ........... YES
    Ponding Allowed ........ NO
    Water Quality .......... NO
  Infiltration Method ...... GREEN_AMPT
  Flow Routing Method ...... DYNWAVE
  Surcharge Method ......... EXTRAN
  Starting Date ............ 07/15/2020 00:00:00
  Ending Date .............. 07/15/2020 08:00:00
  Antecedent Dry Days ...... 0.0
  Report Time Step ......... 00:30:00
  Wet Time Step ............ 00:05:00
  Dry Time Step ............ 01:00:00
  Routing Time Step ........ 30.00 sec
  Variable Time Step ....... YES
  Maximum Trials ........... 8
  Number of Threads ........ 1
  Head Tolerance ........... 0.001500 m
  
  
  **************************        Volume         Depth
  Runoff Quantity Continuity     hectare-m            mm
  **************************     ---------       -------
  Total Precipitation ......       267.366        66.900
  Evaporation Loss .........         2.616         0.655
  Infiltration Loss ........        71.452        17.879
  Surface Runoff ...........       182.520        45.670
  Final Storage ............        11.752         2.941
  Continuity Error (%) .....        -0.365
  
  
  **************************        Volume        Volume
  Flow Routing Continuity        hectare-m      10^6 ltr
  **************************     ---------     ---------
  Dry Weather Inflow .......         0.000         0.000
  Wet Weather Inflow .......       181.864      1818.656
  Groundwater Inflow .......         0.000         0.000
  RDII Inflow ..............         0.000         0.000
  External Inflow ..........         0.000         0.000
  External Outflow .........        12.450       124.504
  Flooding Loss ............       167.168      1671.696
  Evaporation Loss .........         0.000         0.000
  Exfiltration Loss ........         0.000         0.000
  Initial Stored Volume ....         0.000         0.000
  Final Stored Volume ......         2.069        20.691
  Continuity Error (%) .....         0.097
  
  
  *************************
  Highest Continuity Errors
  *************************
  Node jd51 (3.22%)
  Node jd59 (2.87%)
  Node jd31 (2.69%)
  Node jd64 (2.43%)
  Node jd41 (2.41%)
  
  
  ***************************
  Time-Step Critical Elements
  ***************************
  Link GQ73 (96.15%)
  
  
  ********************************
  Highest Flow Instability Indexes
  ********************************
  Link GQ67 (16)
  Link GQ121 (6)
  Link GQ92 (5)
  Link GQ94 (4)
  Link GQ96 (4)
  
  
  *************************
  Routing Time Step Summary
  *************************
  Minimum Time Step           :     1.86 sec
  Average Time Step           :     7.40 sec
  Maximum Time Step           :    30.00 sec
  Percent in Steady State     :     0.00
  Average Iterations per Step :     4.39
  Percent Not Converging      :    20.26
  
  
  ***************************
  Subcatchment Runoff Summary
  ***************************
  
  ------------------------------------------------------------------------------------------------------------------------------
                            Total      Total      Total      Total     Imperv       Perv      Total       Total     Peak  Runoff
                           Precip      Runon       Evap      Infil     Runoff     Runoff     Runoff      Runoff   Runoff   Coeff
  Subcatchment                 mm         mm         mm         mm         mm         mm         mm    10^6 ltr      CMS
  ------------------------------------------------------------------------------------------------------------------------------
  1                         66.90       0.00       0.39      37.48      27.60       0.00      27.60       10.92     2.04   0.413
  2                         66.90       0.00       0.70      14.24      48.64       0.00      48.64       43.98     8.33   0.727
  3                         66.90       0.00       0.73      12.21      51.14       0.00      51.14       20.46     3.83   0.764
  4                         66.90       0.00       0.75      10.49      53.16       0.00      53.16        4.46     0.83   0.795
  5                         66.90       0.00       0.67      17.04      46.94       0.00      46.94        5.80     1.08   0.702
  6                         66.90       0.00       0.64      19.17      45.05       0.00      45.05        4.19     0.78   0.673
  7                         66.90       0.00       0.66      17.12      46.20       0.00      46.20       20.14     3.80   0.691
  8                         66.90       0.00       0.84       3.74      58.95       0.00      58.95        8.21     1.54   0.881
  9                         66.90       0.00       0.87       1.87      60.90       0.00      60.90        7.13     1.33   0.910
  10                        66.90       0.00       0.75      10.88      52.44       0.00      52.44       11.81     2.21   0.784
  11                        66.90       0.00       0.81       6.39      56.37       0.00      56.37       27.94     5.25   0.843
  12                        66.90       0.00       0.64      19.23      44.57       0.00      44.57       21.75     4.07   0.666
  13                        66.90       0.00       0.80       7.21      55.66       0.00      55.66       25.17     4.73   0.832
  14                        66.90       0.00       0.80       7.30      55.89       0.00      55.89       10.55     1.97   0.835
  15                        66.90       0.00       0.74      11.76      51.53       0.00      51.53       17.42     3.26   0.770
  16                        66.90       0.00       0.76       9.72      53.33       0.00      53.33       15.75     2.96   0.797
  17                        66.90       0.00       0.72      13.35      50.03       0.00      50.03       20.93     3.92   0.748
  18                        66.90       0.00       0.82       5.27      57.43       0.00      57.43       23.71     4.46   0.858
  19                        66.90       0.00       0.82       5.50      57.14       0.00      57.14       12.85     2.42   0.854
  20                        66.90       0.00       0.81       5.87      56.43       0.00      56.43       30.28     5.73   0.843
  21                        66.90       0.00       0.87       1.97      60.48       0.00      60.48       18.98     3.57   0.904
  22                        66.90       0.00       0.85       3.16      59.28       0.00      59.28        7.29     1.37   0.886
  23                        66.90       0.00       0.78       8.18      54.54       0.00      54.54       31.22     5.89   0.815
  24                        66.90       0.00       0.76      10.21      52.61       0.00      52.61        9.33     1.76   0.786
  25                        66.90       0.00       0.81       6.28      56.73       0.00      56.73       11.49     2.15   0.848
  26                        66.90       0.00       0.69      15.26      47.77       0.00      47.77       16.77     3.17   0.714
  27                        66.90       0.00       0.83       5.01      57.24       0.00      57.24       24.19     4.58   0.856
  28                        66.90       0.00       0.84       3.69      58.65       0.00      58.65       27.73     5.23   0.877
  29                        66.90       0.00       0.75      10.38      53.00       0.00      53.00       12.37     2.31   0.792
  30                        66.90       0.00       0.86       2.26      60.88       0.00      60.88        4.37     0.81   0.910
  31                        66.90       0.00       0.87       1.41      61.12       0.00      61.12       13.47     2.53   0.914
  32                        66.90       0.00       0.85       2.98      59.54       0.00      59.54       25.73     4.84   0.890
  33                        66.90       0.00       0.86       2.18      60.18       0.00      60.18       21.20     3.99   0.899
  34                        66.90       0.00       0.80       6.77      56.05       0.00      56.05       16.43     3.09   0.838
  35                        66.90       0.00       0.83       5.05      57.65       0.00      57.65       23.91     4.49   0.862
  36                        66.90       0.00       0.68      15.94      47.66       0.00      47.66       18.75     3.51   0.712
  37                        66.90       0.00       0.85       3.61      58.96       0.00      58.96       13.08     2.46   0.881
  38                        66.90       0.00       0.79       7.57      55.37       0.00      55.37       21.12     3.96   0.828
  39                        66.90       0.00       0.72      13.30      50.13       0.00      50.13       21.17     3.96   0.749
  40                        66.90       0.00       0.80       7.24      55.66       0.00      55.66       12.73     2.39   0.832
  41                        66.90       0.00       0.81       5.89      57.16       0.00      57.16       11.27     2.11   0.854
  42                        66.90       0.00       0.81       5.95      56.47       0.00      56.47       13.95     2.63   0.844
  43                        66.90       0.00       0.68      15.64      47.56       0.00      47.56       37.59     7.09   0.711
  44                        66.90       0.00       0.73      12.20      50.78       0.00      50.78       24.55     4.63   0.759
  45                        66.90       0.00       0.69      15.52      47.80       0.00      47.80       34.59     6.51   0.714
  46                        66.90       0.00       0.66      17.29      46.52       0.00      46.52       23.25     4.34   0.695
  47                        66.90       0.00       0.70      14.79      48.47       0.00      48.47       56.51    10.64   0.724
  48                        66.90       0.00       0.83       4.63      57.54       0.00      57.54       33.39     6.32   0.860
  49                        66.90       0.00       0.76       9.91      52.68       0.00      52.68       35.67     6.75   0.787
  50                        66.90       0.00       0.84       3.77      58.02       0.00      58.02       22.81     4.34   0.867
  51                        66.90       0.00       0.81       6.50      55.61       0.00      55.61       10.40     1.98   0.831
  52                        66.90       0.00       0.39      37.53      27.72       0.00      27.72       28.45     5.28   0.414
  53                        66.90       0.00       0.57      24.36      39.91       0.00      39.91       42.51     7.93   0.597
  54                        66.90       0.00       0.70      14.41      49.06       0.00      49.06       11.96     2.24   0.733
  55                        66.90       0.00       0.40      36.84      28.35       0.00      28.35       22.37     4.15   0.424
  56                        66.90       0.00       0.15      55.57      10.85       0.00      10.85        8.84     1.62   0.162
  57                        66.90       0.00       0.79       7.45      54.95       0.00      54.95       45.66     8.64   0.821
  58                        66.90       0.00       0.74      11.82      51.46       0.00      51.46        8.47     1.59   0.769
  59                        66.90       0.00       0.72      13.13      50.66       0.00      50.66        6.45     1.20   0.757
  60                        66.90       0.00       0.27      46.75      19.12       0.00      19.12        5.48     1.01   0.286
  61                        66.90       0.00       0.42      35.56      29.39       0.00      29.39       11.08     2.07   0.439
  62                        66.90       0.00       0.58      23.28      40.56       0.00      40.56       47.53     8.95   0.606
  63                        66.90       0.00       0.79       7.37      54.80       0.00      54.80      105.98    20.12   0.819
  64                        66.90       0.00       0.59      22.49      41.51       0.00      41.51        8.91     1.67   0.620
  65                        66.90       0.00       0.81       6.53      55.66       0.00      55.66       37.43     7.10   0.832
  66                        66.90       0.00       0.63      19.35      44.13       0.00      44.13       11.25     2.12   0.660
  67                        66.90       0.00       0.59      22.46      41.63       0.00      41.63       13.46     2.52   0.622
  68                        66.90       0.00       0.71      13.59      49.95       0.00      49.95        5.55     1.04   0.747
  69                        66.90       0.00       0.42      35.61      29.62       0.00      29.62        9.48     1.75   0.443
  70                        66.90       0.00       0.59      22.87      41.10       0.00      41.10       33.81     6.34   0.614
  71                        66.90       0.00       0.73      12.50      50.93       0.00      50.93        6.25     1.17   0.761
  72                        66.90       0.00       0.77       9.55      53.68       0.00      53.68        6.69     1.25   0.802
  73                        66.90       0.00       0.69      14.94      48.86       0.00      48.86        8.12     1.51   0.730
  74                        66.90       0.00       0.66      17.37      46.50       0.00      46.50       10.01     1.87   0.695
  75                        66.90       0.00       0.74      11.85      51.59       0.00      51.59        7.43     1.39   0.771
  76                        66.90       0.00       0.77       8.98      54.35       0.00      54.35        5.26     0.98   0.812
  77                        66.90       0.00       0.82       5.15      57.71       0.00      57.71        6.25     1.17   0.863
  78                        66.90       0.00       0.80       7.32      55.60       0.00      55.60        6.11     1.15   0.831
  79                        66.90       0.00       0.35      40.77      24.67       0.00      24.67       26.16     4.85   0.369
  80                        66.90       0.00       0.66      17.65      45.79       0.00      45.79       28.66     5.40   0.684
  81                        66.90       0.00       0.67      16.88      46.44       0.00      46.44       20.24     3.82   0.694
  82                        66.90       0.00       0.64      19.00      44.49       0.00      44.49       40.79     7.69   0.665
  83                        66.90       0.00       0.80       7.02      56.08       0.00      56.08        6.85     1.28   0.838
  84                        66.90       0.00       0.75      10.39      52.75       0.00      52.75        6.30     1.18   0.788
  85                        66.90       0.00       0.89       0.51      62.34       0.00      62.34        5.80     1.08   0.932
  86                        66.90       0.00       0.82       5.65      57.25       0.00      57.25        8.43     1.58   0.856
  87                        66.90       0.00       0.87       1.43      61.00       0.00      61.00        8.02     1.51   0.912
  88                        66.90       0.00       0.78       8.34      54.88       0.00      54.88        5.25     0.98   0.820
  89                        66.90       0.00       0.82       5.38      57.61       0.00      57.61       11.09     2.07   0.861
  90                        66.90       0.00       0.89       0.01      63.08       0.00      63.08        0.72     0.13   0.943
  91                        66.90       0.00       0.74      11.21      51.50       0.00      51.50       11.23     2.12   0.770
  92                        66.90       0.00       0.82       5.20      57.68       0.00      57.68        7.21     1.35   0.862
  93                        66.90       0.00       0.67      16.62      46.90       0.00      46.90       24.00     4.51   0.701
  94                        66.90       0.00       0.60      21.67      42.71       0.00      42.71        2.99     0.55   0.638
  95                        66.90       0.00       0.89       0.07      62.73       0.00      62.73        1.37     0.26   0.938
  96                        66.90       0.00       0.72      12.95      50.61       0.00      50.61        6.18     1.15   0.756
  97                        66.90       0.00       0.87       1.42      61.27       0.00      61.27        6.09     1.14   0.916
  98                        66.90       0.00       0.72      12.64      50.96       0.00      50.96        6.28     1.17   0.762
  99                        66.90       0.00       0.36      40.03      25.39       0.00      25.39        9.43     1.75   0.380
  100                       66.90       0.00       0.40      37.02      28.24       0.00      28.24        7.24     1.34   0.422
  101                       66.90       0.00       0.41      36.29      28.77       0.00      28.77       14.09     2.63   0.430
  102                       66.90       0.00       0.67      17.01      46.66       0.00      46.66       11.38     2.13   0.698
  103                       66.90       0.00       0.22      50.22      15.96       0.00      15.96        5.80     1.06   0.239
  104                       66.90       0.00       0.15      55.62      10.77       0.00      10.77       10.43     1.91   0.161
  105                       66.90       0.00       0.73      11.88      51.66       0.00      51.66        6.76     1.26   0.772
  106                       66.90       0.00       0.40      37.10      28.13       0.00      28.13        6.86     1.27   0.421
  
  
  ******************
  Node Depth Summary
  ******************
  
  ---------------------------------------------------------------------------------
                                 Average  Maximum  Maximum  Time of Max    Reported
                                   Depth    Depth      HGL   Occurrence   Max Depth
  Node                 Type       Meters   Meters   Meters  days hr:min      Meters
  ---------------------------------------------------------------------------------
  jd1                  JUNCTION     0.18     0.35   273.35     0  03:00        0.35
  jd2                  JUNCTION     1.53     3.00   270.00     0  02:08        3.00
  jd3                  JUNCTION     2.75     3.00   266.00     0  01:54        3.00
  jd4                  JUNCTION     1.85     3.00   270.00     0  02:05        3.00
  jd5                  JUNCTION     0.12     0.25   274.25     0  03:00        0.25
  jd6                  JUNCTION     0.17     0.35   275.35     0  03:00        0.35
  jd7                  JUNCTION     0.57     3.00   267.10     0  02:21        1.49
  jd8                  JUNCTION     2.09     3.00   267.00     0  02:03        3.00
  jd9                  JUNCTION     1.92     3.00   268.00     0  02:03        3.00
  jd10                 JUNCTION     2.78     3.00   273.00     0  01:48        3.00
  jd11                 JUNCTION     0.15     0.31   282.31     0  03:00        0.31
  jd12                 JUNCTION     2.79     3.00   272.00     0  01:43        3.00
  jd13                 JUNCTION     0.21     0.51   289.51     0  03:00        0.51
  jd14                 JUNCTION     1.49     3.00   283.00     0  02:06        3.00
  jd15                 JUNCTION     0.77     3.00   281.00     0  02:17        2.46
  jd16                 JUNCTION     0.96     3.00   277.00     0  02:13        3.00
  jd17                 JUNCTION     2.20     3.00   278.80     0  02:03        3.00
  jd18                 JUNCTION     1.50     3.00   282.00     0  02:09        3.00
  jd19                 JUNCTION     1.74     3.00   270.00     0  02:04        3.00
  jd20                 JUNCTION     0.46     3.00   276.00     0  02:18        1.40
  jd21                 JUNCTION     2.75     3.00   273.00     0  01:52        3.00
  jd22                 JUNCTION     2.07     3.00   275.00     0  02:01        3.00
  jd23                 JUNCTION     1.18     3.00   281.00     0  02:09        3.00
  jd24                 JUNCTION     0.22     0.48   285.48     0  03:00        0.48
  jd25                 JUNCTION     1.04     3.00   282.00     0  02:10        3.00
  jd26                 JUNCTION     1.50     3.00   288.00     0  02:06        3.00
  jd27                 JUNCTION     1.03     3.00   294.00     0  02:09        3.00
  jd28                 JUNCTION     2.81     3.00   290.00     0  01:38        3.00
  jd29                 JUNCTION     0.15     0.31   299.31     0  03:00        0.31
  jd30                 JUNCTION     0.18     0.33   290.33     0  03:00        0.33
  jd31                 JUNCTION     1.60     3.00   275.00     0  02:04        3.00
  jd32                 JUNCTION     2.80     3.00   275.00     0  01:43        3.00
  jd33                 JUNCTION     0.76     3.00   292.00     0  02:17        3.00
  jd34                 JUNCTION     1.16     3.00   297.00     0  02:05        3.00
  jd35                 JUNCTION     2.84     3.00   292.00     0  01:31        3.00
  jd36                 JUNCTION     1.56     3.00   302.00     0  02:06        3.00
  jd37                 JUNCTION     1.56     3.00   306.00     0  02:05        3.00
  jd38                 JUNCTION     1.19     3.00   300.00     0  02:10        3.00
  jd39                 JUNCTION     2.76     3.00   297.00     0  01:54        3.00
  jd40                 JUNCTION     1.69     3.00   302.00     0  02:07        3.00
  jd41                 JUNCTION     2.70     3.00   296.00     0  02:06        3.00
  jd42                 JUNCTION     0.84     3.00   308.00     0  02:16        3.00
  jd43                 JUNCTION     1.64     3.00   300.00     0  02:04        3.00
  jd44                 JUNCTION     1.66     3.00   286.00     0  02:07        3.00
  jd45                 JUNCTION     2.78     3.00   282.00     0  01:48        3.00
  jd46                 JUNCTION     1.19     3.00   278.00     0  02:14        3.00
  jd47                 JUNCTION     0.24     0.49   315.49     0  03:00        0.49
  jd48                 JUNCTION     0.18     0.39   325.39     0  03:00        0.39
  jd49                 JUNCTION     1.06     3.00   292.00     0  02:10        3.00
  jd50                 JUNCTION     2.82     3.00   278.00     0  01:36        3.00
  jd51                 JUNCTION     2.69     3.00   313.00     0  02:06        3.00
  jd52                 JUNCTION     1.16     3.00   326.00     0  02:10        2.30
  jd53                 JUNCTION     1.57     3.00   325.00     0  02:09        3.00
  jd54                 JUNCTION     0.91     3.00   329.00     0  02:14        3.00
  jd55                 JUNCTION     2.04     3.00   325.00     0  02:05        3.00
  jd56                 JUNCTION     0.52     2.51   329.51     0  02:16        1.71
  jd59                 JUNCTION     2.68     3.00   320.80     0  02:07        3.00
  jd60                 JUNCTION     2.80     3.00   319.00     0  01:42        3.00
  jd61                 JUNCTION     0.78     3.00   332.00     0  02:13        3.00
  jd62                 JUNCTION     0.11     0.25   335.25     0  03:00        0.25
  jd63                 JUNCTION     0.11     0.22   324.22     0  03:00        0.22
  jd64                 JUNCTION     2.57     3.00   321.00     0  02:07        3.00
  jd65                 JUNCTION     2.08     3.00   307.00     0  02:02        3.00
  jd66                 JUNCTION     2.77     3.00   304.00     0  01:49        3.00
  jd69                 JUNCTION     0.92     3.00   336.00     0  02:08        3.00
  jd79                 JUNCTION     2.69     3.00   274.00     0  01:40        3.00
  jd80                 JUNCTION     2.22     3.00   279.00     0  01:58        3.00
  jd81                 JUNCTION     0.78     3.00   291.00     0  02:14        3.00
  jd83                 JUNCTION     2.85     3.00   323.00     0  01:28        3.00
  jd84                 JUNCTION     1.40     3.00   326.00     0  02:04        3.00
  jd85                 JUNCTION     2.78     3.00   324.00     0  01:47        3.00
  jd87                 JUNCTION     2.79     3.00   322.00     0  01:45        3.00
  jd89                 JUNCTION     0.85     3.00   327.00     0  02:10        3.00
  jd90                 JUNCTION     0.75     3.00   331.00     0  02:14        3.00
  jd92                 JUNCTION     0.83     3.00   329.00     0  02:08        3.00
  jd93                 JUNCTION     1.59     3.00   327.00     0  02:07        3.00
  jd94                 JUNCTION     1.13     3.00   329.20     0  02:09        2.48
  jd95                 JUNCTION     1.35     3.00   330.00     0  02:06        2.97
  jd96                 JUNCTION     2.81     3.00   308.00     0  01:40        3.00
  jd97                 JUNCTION     1.38     3.00   330.20     0  02:06        3.00
  jd98                 JUNCTION     0.89     3.00   332.00     0  02:07        3.00
  jd99                 JUNCTION     2.77     3.00   327.00     0  01:50        3.00
  jd101                JUNCTION     0.16     0.30   321.30     0  03:00        0.30
  jd102                JUNCTION     1.06     3.00   327.00     0  02:07        3.00
  jd103                JUNCTION     0.19     0.43   318.43     0  03:00        0.43
  jd106                JUNCTION     2.71     3.00   287.00     0  02:03        3.00
  jd107                JUNCTION     0.32     0.67   332.67     0  03:00        0.67
  jd108                JUNCTION     1.56     3.00   329.00     0  02:16        2.98
  jd109                JUNCTION     0.84     3.00   346.00     0  02:10        3.00
  jd110                JUNCTION     2.79     3.00   327.00     0  01:47        3.00
  jd111                JUNCTION     0.11     0.22   344.22     0  03:00        0.22
  jd112                JUNCTION     0.13     0.25   334.25     0  03:00        0.25
  jd113                JUNCTION     0.16     0.33   348.33     0  03:00        0.33
  jd114                JUNCTION     2.78     3.00   317.00     0  01:47        3.00
  jd117                JUNCTION     1.87     3.00   319.00     0  01:53        3.00
  jd118                JUNCTION     0.14     0.31   330.31     0  03:00        0.31
  jd120                JUNCTION     0.88     3.00   330.00     0  02:08        3.00
  jd121                JUNCTION     0.86     3.00   323.00     0  02:10        3.00
  jd122                JUNCTION     2.75     3.00   276.00     0  01:52        3.00
  jd123                JUNCTION     2.74     3.00   276.20     0  01:55        3.00
  jd124                JUNCTION     2.86     3.00   271.00     0  01:24        3.00
  jd125                JUNCTION     1.80     3.00   278.00     0  02:05        3.00
  jd126                JUNCTION     2.84     3.00   275.00     0  01:29        3.00
  jd135                JUNCTION     0.80     3.00   292.00     0  02:09        3.00
  jd136                JUNCTION     0.96     3.00   344.00     0  02:07        3.00
  psk1                 OUTFALL      0.13     0.25   279.25     0  03:00        0.25
  psk2                 OUTFALL      0.18     0.33   270.33     0  03:00        0.33
  psk3                 OUTFALL      0.50     1.00   272.00     0  02:11        1.00
  psk4                 OUTFALL      0.05     0.26   280.26     0  02:17        0.26
  psk5                 OUTFALL      0.18     0.35   263.35     0  03:00        0.35
  psk6                 OUTFALL      0.12     0.24   259.24     0  03:00        0.24
  psk7                 OUTFALL      0.49     1.00   263.00     0  02:14        1.00
  psk8                 OUTFALL      0.00     0.00   317.00     0  00:00        0.00
  
  
  *******************
  Node Inflow Summary
  *******************
  
  -------------------------------------------------------------------------------------------------
                                  Maximum  Maximum                  Lateral       Total        Flow
                                  Lateral    Total  Time of Max      Inflow      Inflow     Balance
                                   Inflow   Inflow   Occurrence      Volume      Volume       Error
  Node                 Type           CMS      CMS  days hr:min    10^6 ltr    10^6 ltr     Percent
  -------------------------------------------------------------------------------------------------
  jd1                  JUNCTION     2.039    2.465     0  03:00        10.9        14.5       0.474
  jd2                  JUNCTION     3.172    4.036     0  03:00        16.7        21.8       0.552
  jd3                  JUNCTION     3.799    5.518     0  03:00        20.1        38.5       1.064
  jd4                  JUNCTION     4.577    5.008     0  03:00        24.1        26.6       1.037
  jd5                  JUNCTION     1.333    1.845     0  03:00         7.1        10.7       0.217
  jd6                  JUNCTION     1.540    1.540     0  03:00        8.18        8.18       0.254
  jd7                  JUNCTION     0.776    4.651     0  03:00        4.17        33.3       0.511
  jd8                  JUNCTION     1.080    2.026     0  03:00        5.78          18       1.382
  jd9                  JUNCTION     0.829    1.897     0  03:00        4.44        17.3       1.195
  jd10                 JUNCTION     2.210    2.764     0  03:00        11.8        14.8       0.706
  jd11                 JUNCTION     3.264    3.264     0  03:00        17.4        17.4       0.291
  jd12                 JUNCTION     2.459    5.646     0  03:00          13        29.3       0.486
  jd13                 JUNCTION     4.456    4.456     0  03:00        23.6        23.6       0.240
  jd14                 JUNCTION     5.232    5.926     0  03:00        27.6        31.3       0.389
  jd15                 JUNCTION     2.149    2.915     0  02:17        11.4        19.5       1.265
  jd16                 JUNCTION     2.311    6.961     0  03:00        12.3        42.3       0.497
  jd17                 JUNCTION     4.836    8.107     0  03:00        25.6        50.1       1.563
  jd18                 JUNCTION     3.832    5.717     0  03:00        20.4        30.1       0.689
  jd19                 JUNCTION     3.558    5.671     0  03:00        18.9          33       0.625
  jd20                 JUNCTION     2.958    2.958     0  03:00        15.7          19       0.586
  jd21                 JUNCTION     1.373    4.975     0  03:00        7.26          36       0.960
  jd22                 JUNCTION     2.417    3.414     0  03:00        12.8        21.5       0.383
  jd23                 JUNCTION     2.389    5.283     0  03:00        12.7          32       0.276
  jd24                 JUNCTION     3.924    3.924     0  03:00        20.9        20.9       0.296
  jd25                 JUNCTION     3.086    4.602     0  03:00        16.4        24.1       0.410
  jd26                 JUNCTION     4.492    6.034     0  03:00        23.8        34.8       0.464
  jd27                 JUNCTION     4.629    5.252     0  03:00        24.5        31.3       0.468
  jd28                 JUNCTION     6.323    7.259     0  03:00        33.3        40.8       0.343
  jd29                 JUNCTION     2.528    2.528     0  03:00        13.4        13.4       0.190
  jd30                 JUNCTION     2.635    4.679     0  03:00        13.9          31       0.263
  jd31                 JUNCTION     1.760    2.511     0  03:00         9.3        16.3       2.768
  jd32                 JUNCTION     3.567    6.900     0  03:00        18.9          50       0.519
  jd33                 JUNCTION     3.512    4.404     0  03:00        18.7        26.9       0.308
  jd34                 JUNCTION     4.343    4.343     0  03:00        23.2        23.2       0.205
  jd35                 JUNCTION     3.963    6.144     0  03:00        21.1        43.1       0.322
  jd36                 JUNCTION     6.751    7.928     0  03:00        35.5        46.3       0.558
  jd37                 JUNCTION     7.092    7.092     0  03:00        37.5        37.5       0.337
  jd38                 JUNCTION     6.509    7.316     0  03:00        34.5        43.6       0.790
  jd39                 JUNCTION     4.506    8.025     0  03:00        23.9          57       0.918
  jd40                 JUNCTION     7.688    9.892     0  03:00        40.6        63.7       1.108
  jd41                 JUNCTION     5.397   14.229     0  03:00        28.6        86.7       2.471
  jd42                 JUNCTION     7.101    7.799     0  03:00        37.3          41       0.429
  jd43                 JUNCTION     7.934   10.726     0  03:00        42.3        63.7       0.881
  jd44                 JUNCTION    10.636   13.512     0  03:00        56.3        86.7       1.087
  jd45                 JUNCTION     4.335    6.561     0  03:00        22.7        47.1       0.703
  jd46                 JUNCTION     1.976    1.976     0  03:00        10.4        10.4       1.245
  jd47                 JUNCTION     6.344    6.344     0  03:00        33.7        33.7       0.327
  jd48                 JUNCTION     1.754    1.754     0  03:00        9.44        9.44       0.362
  jd49                 JUNCTION     8.642    8.642     0  03:00        45.5        45.5       0.364
  jd50                 JUNCTION     8.950   12.880     0  03:00        47.4        88.2       0.503
  jd51                 JUNCTION     1.867    7.404     0  03:00        9.97        42.2       3.322
  jd52                 JUNCTION     3.817    7.793     0  02:10        20.2        36.2       1.128
  jd53                 JUNCTION     2.125    7.140     0  03:00        11.2        42.4       0.484
  jd54                 JUNCTION     1.139    4.792     0  03:00        6.06        27.6       0.530
  jd55                 JUNCTION     2.075    8.774     0  03:00        11.1        44.6       2.218
  jd56                 JUNCTION     1.260    3.244     0  03:00        6.73        18.4       0.409
  jd59                 JUNCTION     1.251    4.136     0  03:00        6.66        26.3       2.953
  jd60                 JUNCTION     2.241    4.464     0  03:00        11.9        24.6       0.544
  jd61                 JUNCTION     2.516    2.972     0  03:00        13.4        15.6       0.264
  jd62                 JUNCTION     1.011    1.280     0  03:00        5.46        6.34       0.123
  jd63                 JUNCTION     1.389    1.389     0  03:00        7.41        7.41       0.200
  jd64                 JUNCTION     1.170    2.727     0  03:00        6.22        14.9       2.488
  jd65                 JUNCTION    20.123   20.123     0  03:00         106         106       0.198
  jd66                 JUNCTION     2.626    5.429     0  03:00          14          34       0.959
  jd69                 JUNCTION     4.853    4.853     0  03:00        26.1        26.3       0.386
  jd79                 JUNCTION     4.727    5.851     0  03:00        25.1        34.9       0.525
  jd80                 JUNCTION     5.252    5.860     0  03:00        27.8        33.4       0.466
  jd81                 JUNCTION     3.993    3.993     0  03:00        21.1        21.1       0.104
  jd83                 JUNCTION     4.153    4.732     0  03:00        22.3        27.2       0.333
  jd84                 JUNCTION     5.278    5.278     0  03:00        28.3        28.3       0.326
  jd85                 JUNCTION     1.199    2.194     0  03:00        6.42        11.3       0.774
  jd87                 JUNCTION     0.982    2.109     0  03:00        5.24          12       0.639
  jd89                 JUNCTION     1.146    1.146     0  03:00        6.09        6.09       0.399
  jd90                 JUNCTION     1.168    1.168     0  03:00        6.22        6.22       0.307
  jd92                 JUNCTION     0.982    0.982     0  03:00        5.24        5.24       0.210
  jd93                 JUNCTION     2.121    3.138     0  03:00        11.2        19.5       0.657
  jd94                 JUNCTION     0.134    1.425     0  02:09       0.721        8.38       0.695
  jd95                 JUNCTION     0.255    1.311     0  02:09        1.36        7.75       0.954
  jd96                 JUNCTION     1.914    2.569     0  03:00        10.4        13.8       0.722
  jd97                 JUNCTION     2.068    2.068     0  03:00          11          11       0.193
  jd98                 JUNCTION     1.154    1.154     0  03:00        6.16        6.16       0.282
  jd99                 JUNCTION     0.555    1.088     0  03:00        2.98         6.6       0.888
  jd101                JUNCTION     1.512    2.230     0  03:00        8.09        13.6       0.308
  jd102                JUNCTION     1.508    1.508     0  03:00        7.99        7.99       0.342
  jd103                JUNCTION     1.038    1.038     0  03:00        5.53        5.53       0.122
  jd106                JUNCTION     0.812    4.111     0  03:00        4.35        23.3       1.664
  jd107                JUNCTION     1.171    3.179     0  03:00        6.26        18.6       0.527
  jd108                JUNCTION     1.273    1.273     0  03:00        6.84        6.86       0.969
  jd109                JUNCTION     2.130    2.130     0  03:00        11.3        11.3       0.118
  jd110                JUNCTION     1.617    2.405     0  03:00         8.8          13       1.203
  jd111                JUNCTION     1.342    1.342     0  03:00        7.22        7.22       0.228
  jd112                JUNCTION     1.580    3.153     0  03:00         8.4        19.6       0.241
  jd113                JUNCTION     1.062    1.062     0  03:00        5.78        5.78       0.075
  jd114                JUNCTION     1.282    4.998     0  03:00        6.83        43.6       0.743
  jd117                JUNCTION     1.181    3.394     0  03:00        6.27        19.2       0.826
  jd118                JUNCTION     1.081    1.081     0  03:00        5.77        5.77       0.063
  jd120                JUNCTION     1.350    1.350     0  03:00        7.18        7.18       0.182
  jd121                JUNCTION     1.669    1.669     0  03:00        8.88        8.88       0.237
  jd122                JUNCTION     3.962    9.596     0  03:00          21        65.1       0.879
  jd123                JUNCTION     4.073    6.927     0  03:00        21.7        50.8       1.399
  jd124                JUNCTION     5.885    6.958     0  03:00        31.1        45.5       0.145
  jd125                JUNCTION     5.731    7.406     0  03:00        30.2          51       0.776
  jd126                JUNCTION     8.330    9.192     0  03:00        43.8        52.3       0.205
  jd135                JUNCTION     2.107    2.107     0  03:00        11.2        11.2       0.176
  jd136                JUNCTION     1.747    2.809     0  03:00        9.39        15.2       0.483
  psk1                 OUTFALL      0.000    1.548     0  03:00           0        9.49       0.000
  psk2                 OUTFALL      0.000    3.647     0  03:00           0        23.6       0.000
  psk3                 OUTFALL      0.000    5.968     0  02:32           0        39.5       0.000
  psk4                 OUTFALL      0.000    0.507     0  02:17           0        1.32       0.000
  psk5                 OUTFALL      0.000    1.600     0  03:00           0        9.35       0.000
  psk6                 OUTFALL      0.000    1.415     0  03:00           0        8.16       0.000
  psk7                 OUTFALL      0.000    4.651     0  03:00           0        33.1       0.000
  psk8                 OUTFALL      0.000    0.000     0  00:00           0           0       0.000 ltr
  
  
  **********************
  Node Surcharge Summary
  **********************
  
  Surcharging occurs when water rises above the top of the highest conduit.
  ---------------------------------------------------------------------
                                               Max. Height   Min. Depth
                                   Hours       Above Crown    Below Rim
  Node                 Type      Surcharged         Meters       Meters
  ---------------------------------------------------------------------
  jd2                  JUNCTION        2.02          2.200        0.000
  jd3                  JUNCTION        6.10          2.200        0.000
  jd4                  JUNCTION        2.70          2.200        0.000
  jd7                  JUNCTION        0.69          2.000        0.000
  jd8                  JUNCTION        3.71          2.200        0.000
  jd9                  JUNCTION        3.03          2.200        0.000
  jd10                 JUNCTION        6.20          2.400        0.000
  jd12                 JUNCTION        6.28          2.400        0.000
  jd14                 JUNCTION        1.97          2.400        0.000
  jd15                 JUNCTION        0.83          2.000        0.000
  jd16                 JUNCTION        0.99          2.000        0.000
  jd17                 JUNCTION        3.73          2.200        0.000
  jd18                 JUNCTION        1.95          2.000        0.000
  jd19                 JUNCTION        2.55          2.200        0.000
  jd20                 JUNCTION        0.74          2.200        0.000
  jd21                 JUNCTION        6.13          2.200        0.000
  jd22                 JUNCTION        5.98          2.400        0.000
  jd23                 JUNCTION        1.69          2.000        0.000
  jd25                 JUNCTION        1.22          2.000        0.000
  jd26                 JUNCTION        1.98          2.400        0.000
  jd27                 JUNCTION        1.42          2.400        0.000
  jd28                 JUNCTION        6.37          2.400        0.000
  jd31                 JUNCTION        5.93          2.200        0.000
  jd32                 JUNCTION        6.29          2.200        0.000
  jd33                 JUNCTION        0.76          2.200        0.000
  jd34                 JUNCTION        1.93          2.400        0.000
  jd35                 JUNCTION        6.49          2.400        0.000
  jd36                 JUNCTION        2.09          2.400        0.000
  jd37                 JUNCTION        2.07          2.400        0.000
  jd38                 JUNCTION        1.85          2.000        0.000
  jd39                 JUNCTION        6.10          2.000        0.000
  jd40                 JUNCTION        2.26          2.200        0.000
  jd41                 JUNCTION        5.89          1.000        0.000
  jd42                 JUNCTION        0.88          2.200        0.000
  jd43                 JUNCTION        2.12          2.200        0.000
  jd44                 JUNCTION        2.17          2.000        0.000
  jd45                 JUNCTION        6.19          2.000        0.000
  jd46                 JUNCTION        1.80          2.200        0.000
  jd49                 JUNCTION        1.24          2.200        0.000
  jd50                 JUNCTION        6.39          2.200        0.000
  jd51                 JUNCTION        5.89          1.350        0.000
  jd52                 JUNCTION        1.99          1.500        0.000
  jd53                 JUNCTION        2.05          1.800        0.000
  jd54                 JUNCTION        0.87          1.800        0.000
  jd55                 JUNCTION        2.61          1.500        0.000
  jd56                 JUNCTION        0.76          1.509        0.491
  jd59                 JUNCTION        5.87          1.500        0.000
  jd60                 JUNCTION        6.30          2.400        0.000
  jd61                 JUNCTION        0.86          2.400        0.000
  jd64                 JUNCTION        5.88          1.800        0.000
  jd65                 JUNCTION        3.27          2.400        0.000
  jd66                 JUNCTION        6.18          2.200        0.000
  jd69                 JUNCTION        0.97          2.200        0.000
  jd79                 JUNCTION        6.33          2.400        0.000
  jd80                 JUNCTION        4.08          2.400        0.000
  jd81                 JUNCTION        0.84          2.400        0.000
  jd83                 JUNCTION        6.54          2.400        0.000
  jd84                 JUNCTION        1.96          2.400        0.000
  jd85                 JUNCTION        6.22          2.400        0.000
  jd87                 JUNCTION        6.25          2.400        0.000
  jd89                 JUNCTION        0.98          2.400        0.000
  jd90                 JUNCTION        0.82          2.400        0.000
  jd92                 JUNCTION        0.98          2.400        0.000
  jd93                 JUNCTION        2.14          2.200        0.000
  jd94                 JUNCTION        1.98          2.200        0.000
  jd95                 JUNCTION        1.96          2.200        0.000
  jd96                 JUNCTION        6.33          2.200        0.000
  jd97                 JUNCTION        1.98          2.200        0.000
  jd98                 JUNCTION        1.02          2.400        0.000
  jd99                 JUNCTION        6.17          2.400        0.000
  jd102                JUNCTION        1.47          2.400        0.000
  jd106                JUNCTION        5.94          2.000        0.000
  jd108                JUNCTION        6.28          2.000        0.000
  jd109                JUNCTION        0.92          2.400        0.000
  jd110                JUNCTION        6.22          2.000        0.000
  jd114                JUNCTION        6.22          2.000        0.000
  jd117                JUNCTION        6.11          2.200        0.000
  jd120                JUNCTION        1.04          2.400        0.000
  jd121                JUNCTION        0.97          2.400        0.000
  jd122                JUNCTION        6.14          2.200        0.000
  jd123                JUNCTION        6.08          2.200        0.000
  jd124                JUNCTION        6.60          2.400        0.000
  jd125                JUNCTION        2.76          2.200        0.000
  jd126                JUNCTION        6.51          2.400        0.000
  jd135                JUNCTION        0.93          2.400        0.000
  jd136                JUNCTION        1.01          2.200        0.000
  
  
  *********************
  Node Flooding Summary
  *********************
  
  Flooding refers to all water that overflows a node, whether it ponds or not.
  --------------------------------------------------------------------------
                                                             Total   Maximum
                                 Maximum   Time of Max       Flood    Ponded
                        Hours       Rate    Occurrence      Volume     Depth
  Node                 Flooded       CMS   days hr:min    10^6 ltr    Meters
  --------------------------------------------------------------------------
  jd2                     1.91     2.827      0  03:00       9.968     0.000
  jd3                     6.09     5.518      0  03:00      38.116     0.000
  jd4                     2.55     4.497      0  03:00      19.546     0.000
  jd7                     0.01     0.219      0  02:21       0.001     0.000
  jd8                     2.37     1.193      0  03:00       4.705     0.000
  jd9                     2.14     1.108      0  02:03       4.865     0.000
  jd10                    6.20     2.764      0  03:00      14.695     0.000
  jd12                    6.27     5.646      0  03:00      29.173     0.000
  jd14                    1.91     4.324      0  03:00      14.652     0.000
  jd15                    0.01     0.977      0  02:17       0.013     0.000
  jd16                    0.84     1.419      0  02:13       2.629     0.000
  jd17                    3.15     7.278      0  03:00      36.701     0.000
  jd18                    1.89     4.193      0  03:00      14.965     0.000
  jd19                    2.07     4.604      0  03:00      19.961     0.000
  jd20                    0.01     0.288      0  02:18       0.002     0.000
  jd21                    5.98     4.975      0  03:00      35.377     0.000
  jd22                    2.14     2.590      0  03:00      11.988     0.000
  jd23                    1.08     2.267      0  03:00       7.295     0.000
  jd25                    0.94     2.235      0  02:10       5.542     0.000
  jd26                    1.95     4.138      0  03:00      15.859     0.000
  jd27                    1.04     2.373      0  03:00       6.952     0.000
  jd28                    6.36     7.259      0  03:00      40.680     0.000
  jd31                    0.80     1.377      0  02:04       0.885     0.000
  jd32                    6.28     6.900      0  03:00      49.745     0.000
  jd33                    0.72     0.342      0  02:17       0.565     0.000
  jd34                    1.15     2.703      0  03:00       8.593     0.000
  jd35                    6.49     6.144      0  03:00      42.992     0.000
  jd36                    2.01     5.872      0  03:00      23.391     0.000
  jd37                    2.02     5.745      0  03:00      22.355     0.000
  jd38                    1.00     3.112      0  03:00       9.057     0.000
  jd39                    6.10     8.025      0  03:00      56.474     0.000
  jd40                    2.21     7.330      0  03:00      32.737     0.000
  jd41                    5.89    14.229      0  03:00      84.573     0.000
  jd42                    0.82     2.442      0  03:00       5.861     0.000
  jd43                    2.09     8.895      0  03:00      41.142     0.000
  jd44                    2.04     9.612      0  03:00      40.513     0.000
  jd45                    6.19     6.561      0  03:00      46.793     0.000
  jd46                    1.09     1.225      0  03:00       3.515     0.000
  jd49                    1.10     4.760      0  03:00      13.868     0.000
  jd50                    6.39    12.880      0  03:00      87.728     0.000
  jd51                    5.89     7.404      0  03:00      40.835     0.000
  jd52                    0.03     5.159      0  02:10       0.234     0.000
  jd53                    1.90     4.838      0  03:00      17.874     0.000
  jd54                    0.74     0.860      0  02:14       0.489     0.000
  jd55                    2.05     8.774      0  03:00      39.022     0.000
  jd59                    5.87     4.136      0  03:00      25.581     0.000
  jd60                    6.29     4.464      0  03:00      24.501     0.000
  jd61                    0.83     0.678      0  03:00       1.790     0.000
  jd64                    1.04     1.285      0  03:00       4.053     0.000
  jd65                    3.23    19.030      0  03:00      87.749     0.000
  jd66                    6.18     5.429      0  03:00      33.722     0.000
  jd69                    0.93     1.781      0  03:00       5.364     0.000
  jd79                    3.92     5.851      0  03:00      31.371     0.000
  jd80                    3.41     5.702      0  03:00      29.997     0.000
  jd81                    0.82     0.979      0  03:00       2.464     0.000
  jd83                    6.54     4.732      0  03:00      27.141     0.000
  jd84                    1.30     3.438      0  03:00      11.674     0.000
  jd85                    6.22     2.194      0  03:00      11.221     0.000
  jd87                    6.25     2.109      0  03:00      11.906     0.000
  jd89                    0.90     0.387      0  03:00       1.081     0.000
  jd90                    0.79     0.174      0  03:00       0.444     0.000
  jd92                    0.84     0.164      0  03:00       0.433     0.000
  jd93                    1.92     2.040      0  03:00       7.931     0.000
  jd94                    0.01     1.039      0  02:09       0.022     0.000
  jd95                    0.03     0.461      0  02:06       0.010     0.000
  jd96                    6.33     2.569      0  03:00      13.740     0.000
  jd97                    1.16     1.441      0  03:00       4.631     0.000
  jd98                    0.93     0.444      0  03:00       1.260     0.000
  jd99                    6.16     1.088      0  03:00       6.543     0.000
  jd102                   1.08     0.789      0  03:00       2.421     0.000
  jd106                   5.94     4.111      0  03:00      22.945     0.000
  jd108                   0.01     0.127      0  02:16       0.001     0.000
  jd109                   0.90     0.676      0  03:00       1.896     0.000
  jd110                   6.21     2.405      0  03:00      12.887     0.000
  jd114                   6.12     4.998      0  03:00      43.201     0.000
  jd117                   1.27     1.980      0  03:00       6.640     0.000
  jd120                   0.94     0.462      0  03:00       1.324     0.000
  jd121                   0.92     0.621      0  03:00       1.735     0.000
  jd122                   6.08     9.596      0  03:00      64.427     0.000
  jd123                   4.85     6.612      0  03:00      43.573     0.000
  jd124                   6.60     6.958      0  03:00      45.424     0.000
  jd125                   2.11     5.020      0  03:00      21.096     0.000
  jd126                   6.51     9.192      0  03:00      52.198     0.000
  jd135                   0.81     0.272      0  03:00       0.691     0.000
  jd136                   0.96     1.235      0  03:00       3.911     0.000
  
  
  ***********************
  Outfall Loading Summary
  ***********************
  
  -----------------------------------------------------------
                         Flow       Avg       Max       Total
                         Freq      Flow      Flow      Volume
  Outfall Node           Pcnt       CMS       CMS    10^6 ltr
  -----------------------------------------------------------
  psk1                  96.84     0.625     1.548       9.488
  psk2                  96.82     1.547     3.647      23.648
  psk3                  96.87     2.591     5.968      39.453
  psk4                  20.42     0.470     0.507       1.320
  psk5                  96.87     0.616     1.600       9.350
  psk6                  96.84     0.539     1.415       8.159
  psk7                  96.87     2.065     4.651      33.084
  psk8                   0.00     0.000     0.000       0.000
  -----------------------------------------------------------
  System                75.19     8.453     0.000     124.503
  
  
  ********************
  Link Flow Summary
  ********************
  
  -----------------------------------------------------------------------------
                                 Maximum  Time of Max   Maximum    Max/    Max/
                                  |Flow|   Occurrence   |Veloc|    Full    Full
  Link                 Type          CMS  days hr:min     m/sec    Flow   Depth
  -----------------------------------------------------------------------------
  GQ1                  CONDUIT     0.426     0  03:00      1.98    1.12    0.79
  GQ2                  CONDUIT     2.168     0  03:11      2.86    1.03    1.00
  GQ3                  CONDUIT     1.548     0  03:00      8.16    0.06    0.16
  GQ4                  CONDUIT     0.510     0  02:36      1.80    1.00    1.00
  GQ5                  CONDUIT     1.208     0  02:27      2.40    1.00    1.00
  GQ6                  CONDUIT     0.864     0  03:00      2.24    0.39    0.72
  GQ7                  CONDUIT     1.675     0  03:19      3.54    1.00    1.00
  GQ8                  CONDUIT     1.045     0  02:33      2.08    1.00    1.00
  GQ9                  CONDUIT     2.837     0  02:19      5.73    1.00    1.00
  GQ10                 CONDUIT     1.135     0  07:18      4.11    1.04    1.00
  GQ11                 CONDUIT     0.698     0  03:00      2.81    0.75    0.82
  GQ12                 CONDUIT     0.882     0  03:00      3.23    0.96    0.93
  GQ13                 CONDUIT     0.430     0  03:00      1.24    0.20    0.65
  GQ14                 CONDUIT     0.268     0  03:00      1.58    0.38    0.37
  GQ15                 CONDUIT     0.250     0  02:08      4.41    1.01    0.91
  GQ16                 CONDUIT     2.044     0  03:00      4.13    0.99    0.66
  GQ17                 CONDUIT     1.272     0  03:00      3.28    0.40    0.72
  GQ18                 CONDUIT     1.120     0  02:09      2.50    5.05    1.00
  GQ19                 CONDUIT     1.770     0  03:00      3.32    0.21    0.65
  GQ20                 CONDUIT     0.388     0  03:00      0.71    0.21    0.65
  GQ21                 CONDUIT     1.496     0  03:00      2.40    0.46    0.74
  GQ22                 CONDUIT     1.516     0  03:00      2.43    0.46    0.74
  GQ23                 CONDUIT     2.040     0  03:04      2.60    1.00    1.00
  GQ24                 CONDUIT     2.020     0  02:25      4.02    1.00    1.00
  GQ25                 CONDUIT     1.104     0  02:12      4.10    1.24    1.00
  GQ26                 CONDUIT     0.879     0  02:09      3.22    1.03    1.00
  GQ27                 CONDUIT     0.997     0  02:18      3.52    1.00    1.00
  GQ28                 CONDUIT     0.637     0  03:00      1.27    0.68    1.00
  GQ29                 CONDUIT     2.142     0  02:32      4.26    1.00    1.00
  GQ30                 CONDUIT     0.824     0  02:13      2.91    1.00    1.00
  GQ31                 CONDUIT     0.747     0  02:52      2.64    1.00    1.00
  GQ32                 CONDUIT     0.737     0  03:37      2.99    1.18    1.00
  GQ33                 CONDUIT     1.434     0  03:51      5.07    1.00    1.00
  GQ34                 CONDUIT     0.638     0  02:27      2.26    1.00    1.00
  GQ35                 CONDUIT     0.709     0  02:06      2.51    1.31    1.00
  GQ36                 CONDUIT     0.970     0  02:06      3.43    1.20    1.00
  GQ37                 CONDUIT     0.699     0  02:29      2.47    1.00    1.00
  GQ38                 CONDUIT     0.237     0  03:00      1.01    0.34    0.77
  GQ39                 CONDUIT     0.782     0  02:30      2.76    1.00    1.00
  GQ40                 CONDUIT     0.804     0  02:21      2.84    1.00    1.00
  GQ41                 CONDUIT     2.160     0  02:29      2.75    1.00    1.00
  GQ42                 CONDUIT     1.359     0  02:34      2.70    1.00    1.00
  GQ43                 CONDUIT     2.291     0  04:19      4.70    1.02    1.00
  GQ44                 CONDUIT     0.946     0  02:29      1.88    1.00    1.00
  GQ45                 CONDUIT     2.198     0  02:18      4.37    0.89    1.00
  GQ46                 CONDUIT     1.068     0  03:32      2.13    1.00    1.00
  GQ47                 CONDUIT     0.554     0  03:00      2.41    0.53    0.76
  GQ48                 CONDUIT     0.551     0  03:00      2.40    0.53    0.76
  GQ49                 CONDUIT     2.636     0  03:00      9.65    0.99    0.93
  GQ50                 CONDUIT     0.694     0  03:00      2.54    0.91    0.93
  GQ51                 CONDUIT     0.995     0  04:00      3.70    1.52    1.00
  GQ52                 CONDUIT     0.859     0  03:19      1.71    1.14    1.00
  GQ53                 CONDUIT     2.225     0  02:40      2.83    1.00    1.00
  GQ54                 CONDUIT     1.167     0  02:20      4.13    1.00    1.00
  GQ55                 CONDUIT     1.055     0  03:00      4.24    0.72    0.82
  GQ56                 CONDUIT     1.986     0  02:06      4.06    1.08    1.00
  GQ57                 CONDUIT     1.531     0  02:31      3.05    1.00    1.00
  GQ58                 CONDUIT     3.188     0  02:30      6.34    1.00    1.00
  GQ59                 CONDUIT     1.203     0  02:27      2.39    1.00    1.00
  GQ60                 CONDUIT     4.082     0  02:10      2.50    0.98    1.00
  GQ61                 CONDUIT     0.683     0  03:00      0.62    0.09    0.60
  GQ62                 CONDUIT     1.903     0  03:00      1.30    0.19    0.65
  GQ63                 CONDUIT     4.440     0  03:00      2.16    0.13    0.62
  GQ64                 CONDUIT     0.456     0  03:00      2.30    0.35    0.71
  GQ65                 CONDUIT     0.270     0  03:00      1.28    0.49    0.71
  GQ66                 CONDUIT     0.563     0  03:00      1.66    0.17    0.64
  GQ67                 CONDUIT     1.609     0  02:07      1.42    1.12    1.00
  GQ68                 CONDUIT     2.711     0  03:00      3.45    0.86    1.00
  GQ69                 CONDUIT     2.925     0  03:08      5.97    1.04    1.00
  GQ70                 CONDUIT     1.415     0  03:00     10.84    0.20    0.31
  GQ71                 CONDUIT     1.600     0  03:00      7.65    0.39    0.43
  GQ72                 CONDUIT     4.651     0  03:00      6.07    1.11    1.00
  GQ73                 CONDUIT     3.647     0  03:00     16.20    0.24    0.33
  GQ74                 CONDUIT     1.126     0  03:00      2.08    0.20    0.65
  GQ75                 CONDUIT     0.801     0  03:00      1.45    0.23    0.66
  GQ76                 CONDUIT     5.968     0  02:32      7.60    1.29    1.00
  GQ77                 CONDUIT     0.507     0  02:17      0.97    0.15    0.63
  GQ78                 CONDUIT     0.916     0  02:33      3.24    1.00    1.00
  GQ79                 CONDUIT     0.258     0  02:08      1.08    0.56    1.00
  GQ80                 CONDUIT     0.608     0  02:23      2.15    1.00    1.00
  GQ81                 CONDUIT     0.604     0  02:02      2.15    3.83    1.00
  GQ82                 CONDUIT     1.450     0  02:27      5.13    1.00    1.00
  GQ83                 CONDUIT     1.578     0  02:13      5.82    1.01    1.00
  GQ84                 CONDUIT     1.333     0  02:04      4.75    1.06    1.00
  GQ85                 CONDUIT     0.579     0  02:21      2.05    1.00    1.00
  GQ86                 CONDUIT     0.824     0  03:00      3.86    0.35    0.71
  GQ87                 CONDUIT     0.171     0  03:00      0.83    0.25    0.68
  GQ88                 CONDUIT     1.127     0  02:52      3.98    1.00    1.00
  GQ89                 CONDUIT     0.759     0  02:28      2.68    1.00    1.00
  GQ90                 CONDUIT     0.994     0  02:29      3.51    1.00    1.00
  GQ91                 CONDUIT     0.818     0  02:20      2.89    1.00    1.00
  GQ92                 CONDUIT     1.310     0  02:09      2.83    1.89    1.00
  GQ93                 CONDUIT     1.017     0  03:00      2.02    0.87    1.00
  GQ94                 CONDUIT     1.522     0  02:08      3.03    1.81    1.00
  GQ95                 CONDUIT     0.655     0  03:00      1.93    0.17    0.64
  GQ96                 CONDUIT     1.113     0  02:09      2.21    1.90    1.00
  GQ97                 CONDUIT     0.818     0  02:09      2.89    1.47    1.00
  GQ98                 CONDUIT     0.533     0  03:00      1.88    0.76    1.00
  GQ99                 CONDUIT     1.548     0  03:00      1.40    0.09    0.60
  GQ100                CONDUIT     0.719     0  03:00      3.32    1.23    0.75
  GQ101                CONDUIT     1.038     0  03:00      4.02    0.78    0.86
  GQ102                CONDUIT     3.313     0  02:16      6.75    1.01    1.00
  GQ103                CONDUIT     0.650     0  02:31      2.30    1.00    1.00
  GQ104                CONDUIT     1.389     0  03:38      5.01    1.01    1.00
  GQ105                CONDUIT     0.472     0  01:55      0.94    1.50    1.00
  GQ106                CONDUIT     0.911     0  03:00      3.40    0.91    0.90
  GQ107                CONDUIT     1.114     0  02:28      3.94    1.00    1.00
  GQ108                CONDUIT     0.829     0  02:44      1.65    1.00    1.00
  GQ109                CONDUIT     0.738     0  02:23      2.61    1.00    1.00
  GQ110                CONDUIT     1.401     0  03:00      2.58    0.20    0.65
  GQ111                CONDUIT     1.097     0  02:32      3.88    1.00    1.00
  GQ112                CONDUIT     3.179     0  03:00      3.98    0.57    0.78
  GQ113                CONDUIT     1.472     0  02:11      5.21    1.11    1.00
  GQ114                CONDUIT     1.273     0  03:00      1.62    0.52    1.00
  GQ115                CONDUIT     0.554     0  03:00      1.45    0.08    0.37
  GQ116                CONDUIT     0.788     0  03:00      1.56    0.11    0.61
  GQ117                CONDUIT     1.573     0  03:00      4.83    0.98    0.65
  GQ118                CONDUIT     1.062     0  03:00      2.98    0.36    0.71
  GQ119                CONDUIT     2.302     0  02:27      4.58    1.00    1.00
  GQ120                CONDUIT     0.000     0  00:00      0.00    0.00    0.50
  GQ121                CONDUIT     1.414     0  02:32      2.81    1.00    1.00
  GQ122                CONDUIT     1.131     0  03:00      3.25    0.21    0.65
  GQ123                CONDUIT     1.081     0  03:00      4.72    0.52    0.76
  GQ124                CONDUIT     0.474     0  03:00      1.46    0.21    0.65
  GQ125                CONDUIT     0.889     0  02:28      3.14    1.00    1.00
  GQ126                CONDUIT     1.049     0  02:20      3.71    1.00    1.00
  GQ127                CONDUIT     0.823     0  04:13      1.64    1.05    1.00
  GQ128                CONDUIT     4.585     0  02:32      4.05    1.00    1.00
  GQ129                CONDUIT     1.313     0  02:34      2.61    1.00    1.00
  GQ130                CONDUIT     1.073     0  02:14      3.79    1.00    1.00
  GQ131                CONDUIT     0.862     0  02:16      3.05    1.00    1.00
  
  
  ***************************
  Flow Classification Summary
  ***************************
  
  -------------------------------------------------------------------------------------
                      Adjusted    ---------- Fraction of Time in Flow Class ---------- 
                       /Actual         Up    Down  Sub   Sup   Up    Down  Norm  Inlet 
  Conduit               Length    Dry  Dry   Dry   Crit  Crit  Crit  Crit  Ltd   Ctrl  
  -------------------------------------------------------------------------------------
  GQ1                     1.00   0.03  0.00  0.00  0.48  0.49  0.00  0.00  0.00  0.00
  GQ2                     1.00   0.03  0.00  0.00  0.33  0.64  0.00  0.00  0.73  0.00
  GQ3                     1.00   0.03  0.00  0.00  0.00  0.97  0.00  0.00  0.21  0.00
  GQ4                     1.00   0.03  0.00  0.00  0.97  0.00  0.00  0.00  0.41  0.00
  GQ5                     1.00   0.03  0.00  0.00  0.97  0.00  0.00  0.00  0.59  0.00
  GQ6                     1.00   0.03  0.00  0.00  0.97  0.00  0.00  0.00  0.87  0.00
  GQ7                     1.00   0.03  0.00  0.00  0.54  0.43  0.00  0.00  0.09  0.00
  GQ8                     1.00   0.03  0.00  0.00  0.97  0.00  0.00  0.00  0.62  0.00
  GQ9                     1.00   0.03  0.00  0.00  0.76  0.21  0.00  0.00  0.70  0.00
  GQ10                    1.00   0.03  0.00  0.00  0.85  0.11  0.00  0.00  0.45  0.00
  GQ11                    1.00   0.03  0.00  0.00  0.31  0.66  0.00  0.00  0.86  0.00
  GQ12                    1.00   0.03  0.00  0.00  0.70  0.26  0.00  0.00  0.77  0.00
  GQ13                    1.00   0.03  0.00  0.00  0.97  0.00  0.00  0.00  0.87  0.00
  GQ14                    1.00   0.03  0.00  0.00  0.66  0.31  0.00  0.00  0.00  0.00
  GQ15                    1.00   0.03  0.00  0.00  0.00  0.97  0.00  0.00  0.02  0.00
  GQ16                    1.00   0.03  0.00  0.00  0.00  0.97  0.00  0.00  0.00  0.00
  GQ17                    1.00   0.03  0.00  0.00  0.42  0.54  0.00  0.00  0.87  0.00
  GQ18                    1.00   0.03  0.00  0.00  0.90  0.07  0.00  0.00  0.05  0.00
  GQ19                    1.00   0.03  0.00  0.00  0.35  0.62  0.00  0.00  0.87  0.00
  GQ20                    1.00   0.03  0.00  0.00  0.97  0.00  0.00  0.00  0.87  0.00
  GQ21                    1.00   0.03  0.00  0.00  0.74  0.23  0.00  0.00  0.87  0.00
  GQ22                    1.00   0.03  0.00  0.00  0.48  0.49  0.00  0.00  0.87  0.00
  GQ23                    1.00   0.03  0.00  0.00  0.48  0.49  0.00  0.00  0.14  0.00
  GQ24                    1.00   0.03  0.00  0.00  0.95  0.02  0.00  0.00  0.62  0.00
  GQ25                    1.00   0.03  0.00  0.00  0.23  0.73  0.00  0.00  0.02  0.00
  GQ26                    1.00   0.03  0.00  0.00  0.25  0.72  0.00  0.00  0.68  0.00
  GQ27                    1.00   0.03  0.00  0.00  0.89  0.08  0.00  0.00  0.61  0.00
  GQ28                    1.00   0.03  0.00  0.00  0.97  0.00  0.00  0.00  0.61  0.00
  GQ29                    1.00   0.03  0.00  0.00  0.97  0.00  0.00  0.00  0.11  0.00
  GQ30                    1.00   0.03  0.00  0.00  0.95  0.02  0.00  0.00  0.08  0.00
  GQ31                    1.00   0.03  0.00  0.00  0.97  0.00  0.00  0.00  0.62  0.00
  GQ32                    1.00   0.03  0.00  0.00  0.39  0.58  0.00  0.00  0.02  0.00
  GQ33                    1.00   0.03  0.00  0.00  0.79  0.18  0.00  0.00  0.59  0.00
  GQ34                    1.00   0.03  0.00  0.00  0.97  0.00  0.00  0.00  0.63  0.00
  GQ35                    1.00   0.03  0.00  0.00  0.53  0.44  0.00  0.00  0.31  0.00
  GQ36                    1.00   0.03  0.00  0.00  0.50  0.47  0.00  0.00  0.57  0.00
  GQ37                    1.00   0.03  0.00  0.00  0.97  0.00  0.00  0.00  0.61  0.00
  GQ38                    1.00   0.03  0.00  0.00  0.97  0.00  0.00  0.00  0.61  0.00
  GQ39                    1.00   0.03  0.00  0.00  0.94  0.03  0.00  0.00  0.61  0.00
  GQ40                    1.00   0.03  0.00  0.00  0.48  0.49  0.00  0.00  0.63  0.00
  GQ41                    1.00   0.03  0.00  0.00  0.97  0.00  0.00  0.00  0.59  0.00
  GQ42                    1.00   0.03  0.00  0.00  0.97  0.00  0.00  0.00  0.50  0.00
  GQ43                    1.00   0.03  0.00  0.00  0.51  0.46  0.00  0.00  0.60  0.00
  GQ44                    1.00   0.03  0.00  0.00  0.97  0.00  0.00  0.00  0.40  0.00
  GQ45                    1.00   0.03  0.00  0.00  0.40  0.57  0.00  0.00  0.71  0.00
  GQ46                    1.00   0.03  0.00  0.00  0.70  0.27  0.00  0.00  0.33  0.00
  GQ47                    1.00   0.03  0.00  0.00  0.75  0.22  0.00  0.00  0.87  0.00
  GQ48                    1.00   0.03  0.00  0.00  0.75  0.22  0.00  0.00  0.87  0.00
  GQ49                    1.00   0.03  0.00  0.00  0.45  0.52  0.00  0.00  0.79  0.00
  GQ50                    1.00   0.03  0.00  0.00  0.97  0.00  0.00  0.00  0.76  0.00
  GQ51                    1.00   0.03  0.00  0.00  0.47  0.50  0.00  0.00  0.35  0.00
  GQ52                    1.00   0.03  0.00  0.00  0.97  0.00  0.00  0.00  0.56  0.00
  GQ53                    1.00   0.03  0.00  0.00  0.97  0.00  0.00  0.00  0.52  0.00
  GQ54                    1.00   0.03  0.00  0.00  0.72  0.25  0.00  0.00  0.75  0.00
  GQ55                    1.00   0.03  0.00  0.00  0.64  0.32  0.00  0.00  0.77  0.00
  GQ56                    1.00   0.03  0.00  0.00  0.51  0.46  0.00  0.00  0.42  0.00
  GQ57                    1.00   0.03  0.00  0.00  0.97  0.00  0.00  0.00  0.74  0.00
  GQ58                    1.00   0.03  0.00  0.00  0.69  0.28  0.00  0.00  0.74  0.00
  GQ59                    1.00   0.03  0.00  0.00  0.97  0.00  0.00  0.00  0.52  0.00
  GQ60                    1.00   0.03  0.00  0.00  0.97  0.00  0.00  0.00  0.13  0.00
  GQ61                    1.00   0.03  0.00  0.00  0.97  0.00  0.00  0.00  0.87  0.00
  GQ62                    1.00   0.03  0.00  0.00  0.97  0.00  0.00  0.00  0.87  0.00
  GQ63                    1.00   0.03  0.00  0.00  0.95  0.02  0.00  0.00  0.87  0.00
  GQ64                    1.00   0.03  0.00  0.00  0.26  0.71  0.00  0.00  0.87  0.00
  GQ65                    1.00   0.03  0.00  0.00  0.97  0.00  0.00  0.00  0.75  0.00
  GQ66                    1.00   0.03  0.00  0.00  0.96  0.01  0.00  0.00  0.87  0.00
  GQ67                    1.00   0.03  0.00  0.00  0.97  0.00  0.00  0.00  0.05  0.00
  GQ68                    1.00   0.03  0.00  0.00  0.96  0.01  0.00  0.00  0.74  0.00
  GQ69                    1.00   0.03  0.00  0.00  0.71  0.26  0.00  0.00  0.74  0.00
  GQ70                    1.00   0.03  0.00  0.00  0.00  0.97  0.00  0.00  0.00  0.00
  GQ71                    1.00   0.03  0.00  0.00  0.00  0.97  0.00  0.00  0.16  0.00
  GQ72                    1.00   0.03  0.00  0.00  0.19  0.78  0.00  0.00  0.25  0.00
  GQ73                    1.00   0.03  0.00  0.00  0.00  0.97  0.00  0.00  0.02  0.00
  GQ74                    1.00   0.03  0.00  0.00  0.86  0.10  0.00  0.00  0.87  0.00
  GQ75                    1.00   0.03  0.00  0.00  0.97  0.00  0.00  0.00  0.87  0.00
  GQ76                    1.00   0.03  0.00  0.00  0.26  0.71  0.00  0.00  0.20  0.00
  GQ77                    1.00   0.03  0.76  0.00  0.20  0.00  0.00  0.00  0.62  0.00
  GQ78                    1.00   0.03  0.00  0.00  0.95  0.02  0.00  0.00  0.58  0.00
  GQ79                    1.00   0.03  0.00  0.00  0.97  0.00  0.00  0.00  0.08  0.00
  GQ80                    1.00   0.03  0.00  0.00  0.97  0.00  0.00  0.00  0.46  0.00
  GQ81                    1.00   0.03  0.00  0.00  0.97  0.00  0.00  0.00  0.00  0.00
  GQ82                    1.00   0.03  0.00  0.00  0.68  0.29  0.00  0.00  0.75  0.00
  GQ83                    1.00   0.03  0.00  0.00  0.22  0.75  0.00  0.00  0.76  0.00
  GQ84                    1.00   0.03  0.00  0.00  0.66  0.31  0.00  0.00  0.62  0.00
  GQ85                    1.00   0.03  0.00  0.00  0.97  0.00  0.00  0.00  0.49  0.00
  GQ86                    1.00   0.03  0.00  0.00  0.71  0.26  0.00  0.00  0.87  0.00
  GQ87                    1.00   0.03  0.00  0.00  0.97  0.00  0.00  0.00  0.75  0.00
  GQ88                    1.00   0.03  0.00  0.00  0.73  0.24  0.00  0.00  0.75  0.00
  GQ89                    1.00   0.03  0.00  0.00  0.96  0.01  0.00  0.00  0.72  0.00
  GQ90                    1.00   0.03  0.00  0.00  0.87  0.10  0.00  0.00  0.75  0.00
  GQ91                    1.00   0.03  0.00  0.00  0.96  0.01  0.00  0.00  0.69  0.00
  GQ92                    1.00   0.03  0.00  0.00  0.83  0.13  0.00  0.00  0.02  0.00
  GQ93                    1.00   0.03  0.00  0.00  0.97  0.00  0.00  0.00  0.61  0.00
  GQ94                    1.00   0.03  0.00  0.00  0.73  0.24  0.00  0.00  0.09  0.00
  GQ95                    1.00   0.03  0.00  0.00  0.97  0.00  0.00  0.00  0.87  0.00
  GQ96                    1.00   0.03  0.00  0.00  0.97  0.00  0.00  0.00  0.24  0.00
  GQ97                    1.00   0.03  0.00  0.00  0.28  0.69  0.00  0.00  0.36  0.00
  GQ98                    1.00   0.03  0.00  0.00  0.97  0.00  0.00  0.00  0.60  0.00
  GQ99                    1.00   0.03  0.00  0.00  0.96  0.01  0.00  0.00  0.87  0.00
  GQ100                   1.00   0.03  0.00  0.00  0.00  0.97  0.00  0.00  0.01  0.00
  GQ101                   1.00   0.03  0.00  0.00  0.65  0.32  0.00  0.00  0.76  0.00
  GQ102                   1.00   0.03  0.00  0.00  0.66  0.31  0.00  0.00  0.76  0.00
  GQ103                   1.00   0.03  0.00  0.00  0.97  0.00  0.00  0.00  0.62  0.00
  GQ104                   1.00   0.03  0.00  0.00  0.76  0.21  0.00  0.00  0.66  0.00
  GQ105                   1.00   0.03  0.00  0.00  0.97  0.00  0.00  0.00  0.07  0.00
  GQ106                   1.00   0.03  0.00  0.00  0.66  0.31  0.00  0.00  0.76  0.00
  GQ107                   1.00   0.03  0.00  0.00  0.83  0.14  0.00  0.00  0.61  0.00
  GQ108                   1.00   0.03  0.00  0.00  0.97  0.00  0.00  0.00  0.12  0.00
  GQ109                   1.00   0.03  0.00  0.00  0.88  0.09  0.00  0.00  0.71  0.00
  GQ110                   1.00   0.03  0.00  0.00  0.76  0.20  0.00  0.00  0.87  0.00
  GQ111                   1.00   0.03  0.00  0.00  0.90  0.06  0.00  0.00  0.63  0.00
  GQ112                   1.00   0.03  0.00  0.00  0.02  0.95  0.00  0.00  0.74  0.00
  GQ113                   1.00   0.03  0.00  0.00  0.23  0.74  0.00  0.00  0.72  0.00
  GQ114                   1.00   0.03  0.00  0.00  0.97  0.00  0.00  0.00  0.09  0.00
  GQ115                   1.00   0.03  0.00  0.00  0.94  0.03  0.00  0.00  0.87  0.00
  GQ116                   1.00   0.03  0.00  0.00  0.97  0.00  0.00  0.00  0.87  0.00
  GQ117                   1.00   0.03  0.00  0.00  0.00  0.97  0.00  0.00  0.00  0.00
  GQ118                   1.00   0.03  0.00  0.00  0.30  0.67  0.00  0.00  0.87  0.00
  GQ119                   1.00   0.03  0.00  0.00  0.85  0.12  0.00  0.00  0.58  0.00
  GQ120                   1.00   0.03  0.06  0.00  0.91  0.00  0.00  0.00  0.00  0.00
  GQ121                   1.00   0.03  0.00  0.00  0.96  0.01  0.00  0.00  0.10  0.00
  GQ122                   1.00   0.03  0.00  0.00  0.63  0.34  0.00  0.00  0.87  0.00
  GQ123                   1.00   0.03  0.00  0.00  0.45  0.51  0.00  0.00  0.87  0.00
  GQ124                   1.00   0.03  0.00  0.00  0.95  0.02  0.00  0.00  0.87  0.00
  GQ125                   1.00   0.03  0.00  0.00  0.96  0.01  0.00  0.00  0.63  0.00
  GQ126                   1.00   0.03  0.00  0.00  0.74  0.23  0.00  0.00  0.73  0.00
  GQ127                   1.00   0.03  0.00  0.00  0.97  0.00  0.00  0.00  0.25  0.00
  GQ128                   1.00   0.03  0.00  0.00  0.55  0.42  0.00  0.00  0.66  0.00
  GQ129                   1.00   0.03  0.00  0.00  0.97  0.00  0.00  0.00  0.44  0.00
  GQ130                   1.00   0.03  0.00  0.00  0.90  0.07  0.00  0.00  0.44  0.00
  GQ131                   1.00   0.03  0.00  0.00  0.95  0.02  0.00  0.00  0.61  0.00
  
  
  *************************
  Conduit Surcharge Summary
  *************************
  
  ----------------------------------------------------------------------------
                                                           Hours        Hours 
                         --------- Hours Full --------   Above Full   Capacity
  Conduit                Both Ends  Upstream  Dnstream   Normal Flow   Limited
  ----------------------------------------------------------------------------
  GQ1                         0.01      1.31      0.01      0.79         0.01
  GQ2                         0.82      0.82      0.99      0.04         0.01
  GQ4                         2.99      2.99      6.18      0.01         0.01
  GQ5                         2.02      2.02      6.10      0.01         0.01
  GQ6                         0.01      0.01      2.02      0.01         0.01
  GQ7                         2.27      2.27      2.76      0.01         0.01
  GQ8                         1.24      1.24      2.27      0.01         0.01
  GQ9                         1.24      1.24      6.39      0.01         0.01
  GQ10                        3.27      3.27      6.45      0.08         0.01
  GQ11                        0.01      0.01      0.99      0.01         0.01
  GQ12                        0.01      0.01      4.45      0.01         0.01
  GQ13                        0.01      0.01      2.70      0.01         0.01
  GQ15                        0.01      1.01      0.01      0.01         0.01
  GQ16                        0.01      1.85      0.01      0.01         0.01
  GQ17                        0.01      0.01      0.86      0.01         0.01
  GQ18                        0.86      0.86      3.71      4.24         0.01
  GQ19                        0.01      0.01      0.69      0.01         0.01
  GQ20                        0.01      0.01      1.95      0.01         0.01
  GQ21                        0.01      0.01      1.95      0.01         0.01
  GQ22                        0.01      0.01      1.22      0.01         0.01
  GQ23                        1.22      1.22      1.69      0.01         0.01
  GQ24                        1.90      1.90      6.29      0.01         0.01
  GQ25                        0.88      1.93      0.88      0.77         0.16
  GQ26                        0.88      0.88      1.96      0.01         0.01
  GQ27                        1.96      1.96      5.98      0.01         0.01
  GQ28                        0.74      0.74      6.13      0.01         0.01
  GQ29                        5.93      5.93      6.13      0.01         0.01
  GQ30                        5.98      5.98      6.21      0.01         0.01
  GQ31                        1.93      1.93      6.49      0.01         0.01
  GQ32                        1.42      2.09      1.42      1.04         0.38
  GQ33                        2.09      2.09      6.49      0.01         0.01
  GQ34                        0.99      0.99      2.09      0.01         0.01
  GQ35                        2.04      2.07      2.09      0.10         0.01
  GQ36                        2.05      2.07      2.09      1.13         1.03
  GQ37                        1.42      1.42      6.37      0.01         0.01
  GQ38                        0.01      0.01      6.37      0.01         0.01
  GQ39                        1.98      1.98      4.45      0.01         0.01
  GQ40                        1.42      1.42      1.98      0.01         0.01
  GQ41                        1.85      1.85      6.10      0.01         0.01
  GQ42                        2.26      2.26      6.16      0.01         0.01
  GQ43                        2.16      2.16      2.26      0.02         0.01
  GQ44                        3.03      3.03      3.71      0.01         0.01
  GQ45                        0.74      0.74      2.55      0.01         0.01
  GQ46                        2.55      2.55      3.03      0.01         0.01
  GQ47                        0.01      0.01      6.20      0.01         0.01
  GQ48                        0.01      0.01      6.28      0.01         0.01
  GQ49                        0.01      0.01      6.28      0.01         0.01
  GQ50                        0.01      0.01      1.97      0.01         0.01
  GQ51                        1.31      1.97      1.31      2.02         1.31
  GQ52                        1.80      1.80      5.93      0.43         0.44
  GQ53                        2.17      2.17      6.19      0.01         0.01
  GQ54                        0.86      0.86      6.30      0.01         0.01
  GQ55                        0.01      0.01      6.30      0.01         0.01
  GQ56                        2.10      2.12      2.27      0.13         0.03
  GQ57                        0.88      0.88      2.12      0.01         0.01
  GQ58                        0.88      0.88      6.02      0.01         0.01
  GQ59                        2.26      2.26      6.02      0.01         0.01
  GQ60                        1.99      1.99      2.61      0.01         0.01
  GQ61                        0.01      0.01      5.87      0.01         0.01
  GQ62                        0.01      0.01      5.89      0.01         0.01
  GQ63                        0.01      0.01      5.89      0.01         0.01
  GQ64                        0.01      0.01      0.86      0.01         0.01
  GQ65                        0.01      0.01      1.06      0.01         0.01
  GQ66                        0.01      0.01      5.91      0.01         0.01
  GQ67                        5.88      5.88      5.89      0.29         0.01
  GQ68                        0.76      0.76      5.94      0.01         0.01
  GQ69                        0.97      0.97      6.18      0.06         0.01
  GQ72                        0.69      0.69      0.83      0.83         0.68
  GQ74                        0.01      0.01      0.99      0.01         0.01
  GQ75                        0.01      0.01      5.94      0.01         0.01
  GQ76                        0.99      0.99      1.08      1.08         0.99
  GQ77                        0.01      0.01      5.71      0.01         0.01
  GQ78                        2.18      2.18      6.33      0.01         0.01
  GQ79                        0.89      0.89      6.33      0.01         0.01
  GQ80                        2.18      2.18      4.08      0.01         0.01
  GQ81                        4.02      4.08      4.45      3.85         0.53
  GQ82                        0.84      0.84      4.45      0.01         0.01
  GQ83                        0.84      0.84      1.90      0.01         0.01
  GQ84                        1.96      1.96      2.23      0.04         0.01
  GQ85                        1.96      1.96      6.54      0.01         0.01
  GQ86                        0.01      0.01      6.22      0.01         0.01
  GQ87                        0.01      0.01      6.22      0.01         0.01
  GQ88                        0.86      0.86      6.25      0.01         0.01
  GQ89                        0.98      0.98      5.97      0.01         0.01
  GQ90                        0.82      0.82      5.93      0.01         0.01
  GQ91                        0.98      0.98      6.05      0.01         0.01
  GQ92                        1.91      1.96      1.98      1.91         1.84
  GQ93                        1.98      1.98      2.14      0.01         0.01
  GQ94                        2.12      2.14      2.16      2.12         2.06
  GQ95                        0.01      0.01      6.33      0.01         0.01
  GQ96                        1.95      1.98      1.96      1.97         1.88
  GQ97                        0.98      1.02      0.98      1.08         0.98
  GQ98                        0.98      0.98      6.17      0.01         0.01
  GQ99                        0.01      0.01      5.89      0.01         0.01
  GQ100                       0.01      1.47      0.01      1.20         0.01
  GQ101                       0.01      0.01      6.05      0.01         0.01
  GQ102                       0.76      0.76      6.14      0.03         0.01
  GQ103                       1.59      1.59      6.23      0.01         0.01
  GQ104                       1.42      1.42      6.23      0.04         0.01
  GQ105                       6.08      6.08      6.14      4.17         0.01
  GQ106                       0.01      0.01      6.11      0.01         0.01
  GQ107                       1.98      1.98      6.11      0.01         0.01
  GQ108                       3.73      3.73      6.08      0.01         0.01
  GQ109                       0.93      0.93      1.98      0.01         0.01
  GQ110                       0.01      0.01      5.94      0.01         0.01
  GQ111                       0.93      0.93      6.05      0.01         0.01
  GQ112                       0.01      0.01      0.87      0.01         0.01
  GQ113                       0.87      0.92      0.87      0.96         0.87
  GQ114                       0.76      0.76      6.28      0.01         0.01
  GQ116                       0.01      0.01      6.22      0.01         0.01
  GQ117                       0.01      1.01      0.01      0.01         0.01
  GQ118                       0.01      0.01      1.01      0.01         0.01
  GQ119                       2.20      2.20      6.28      0.01         0.01
  GQ120                       0.01      0.01      6.22      0.01         0.01
  GQ121                       6.11      6.11      6.28      0.01         0.01
  GQ122                       0.01      0.01      6.11      0.01         0.01
  GQ123                       0.01      0.01      6.13      0.01         0.01
  GQ124                       0.01      0.01      1.05      0.01         0.01
  GQ125                       1.04      1.04      6.05      0.01         0.01
  GQ126                       0.97      0.97      6.05      0.01         0.01
  GQ127                       2.16      2.16      2.20      0.07         0.07
  GQ128                       0.87      0.87      2.05      0.01         0.01
  GQ129                       2.76      2.76      6.29      0.01         0.01
  GQ130                       2.94      2.94      6.60      0.01         0.01
  GQ131                       1.97      1.97      6.51      0.01         0.01
  

  Analysis begun on:  Sat Mar 25 16:17:57 2023
  Analysis ended on:  Sat Mar 25 16:17:59 2023
  Total elapsed time: 00:00:02