
  OWA STORM WATER MANAGEMENT MODEL - VERSION v5.1.14 (OWA 2022-07-31)
  --------------------------------------------------------------

  INP file created by DSDAConvertToSwmmTools 
  version 0.0.1 EcoVista 
  Title/Notes: 
  
  
  *********************************************************
  NOTE: The summary statistics displayed in this report are
  based on results found at every computational time step,  
  not just on results from each reporting time step.
  *********************************************************
  
  ****************
  Analysis Options
  ****************
  Flow Units ............... CMS
  Process Models:
    Rainfall/Runoff ........ YES
    RDII ................... NO
    Snowmelt ............... NO
    Groundwater ............ NO
    Flow Routing ........... YES
    Ponding Allowed ........ NO
    Water Quality .......... NO
  Infiltration Method ...... GREEN_AMPT
  Flow Routing Method ...... DYNWAVE
  Surcharge Method ......... EXTRAN
  Starting Date ............ 07/15/2020 00:00:00
  Ending Date .............. 07/15/2020 12:00:00
  Antecedent Dry Days ...... 0.0
  Report Time Step ......... 00:30:00
  Wet Time Step ............ 00:05:00
  Dry Time Step ............ 01:00:00
  Routing Time Step ........ 30.00 sec
  Variable Time Step ....... YES
  Maximum Trials ........... 8
  Number of Threads ........ 1
  Head Tolerance ........... 0.001500 m
  
  
  **************************        Volume         Depth
  Runoff Quantity Continuity     hectare-m            mm
  **************************     ---------       -------
  Total Precipitation ......        99.513        24.900
  Evaporation Loss .........         4.129         1.033
  Infiltration Loss ........        26.594         6.654
  Surface Runoff ...........        61.280        15.333
  Final Storage ............         7.671         1.919
  Continuity Error (%) .....        -0.162
  
  
  **************************        Volume        Volume
  Flow Routing Continuity        hectare-m      10^6 ltr
  **************************     ---------     ---------
  Dry Weather Inflow .......         0.000         0.000
  Wet Weather Inflow .......        61.180       611.806
  Groundwater Inflow .......         0.000         0.000
  RDII Inflow ..............         0.000         0.000
  External Inflow ..........         0.000         0.000
  External Outflow .........         5.904        59.044
  Flooding Loss ............        53.770       537.708
  Evaporation Loss .........         0.000         0.000
  Exfiltration Loss ........         0.000         0.000
  Initial Stored Volume ....         0.000         0.000
  Final Stored Volume ......         1.351        13.506
  Continuity Error (%) .....         0.253
  
  
  *************************
  Highest Continuity Errors
  *************************
  Node jd51 (8.89%)
  Node jd59 (7.24%)
  Node jd64 (7.17%)
  Node jd31 (6.50%)
  Node jd55 (6.35%)
  
  
  ***************************
  Time-Step Critical Elements
  ***************************
  Link GQ73 (97.11%)
  
  
  ********************************
  Highest Flow Instability Indexes
  ********************************
  Link GQ67 (24)
  Link GQ29 (7)
  Link GQ46 (5)
  Link GQ114 (5)
  Link GQ121 (4)
  
  
  *************************
  Routing Time Step Summary
  *************************
  Minimum Time Step           :     4.33 sec
  Average Time Step           :     9.31 sec
  Maximum Time Step           :    30.00 sec
  Percent in Steady State     :     0.00
  Average Iterations per Step :     3.91
  Percent Not Converging      :    14.85
  
  
  ***************************
  Subcatchment Runoff Summary
  ***************************
  
  ------------------------------------------------------------------------------------------------------------------------------
                            Total      Total      Total      Total     Imperv       Perv      Total       Total     Peak  Runoff
                           Precip      Runon       Evap      Infil     Runoff     Runoff     Runoff      Runoff   Runoff   Coeff
  Subcatchment                 mm         mm         mm         mm         mm         mm         mm    10^6 ltr      CMS
  ------------------------------------------------------------------------------------------------------------------------------
  1                         24.90       0.00       0.62      13.95       9.33       0.00       9.33        3.69     0.46   0.375
  2                         24.90       0.00       1.11       5.30      16.32       0.00      16.32       14.76     1.72   0.656
  3                         24.90       0.00       1.15       4.54      17.14       0.00      17.14        6.86     0.86   0.688
  4                         24.90       0.00       1.19       3.90      17.80       0.00      17.80        1.49     0.19   0.715
  5                         24.90       0.00       1.05       6.34      15.74       0.00      15.74        1.95     0.25   0.632
  6                         24.90       0.00       1.01       7.14      15.12       0.00      15.12        1.40     0.18   0.607
  7                         24.90       0.00       1.05       6.37      15.52       0.00      15.52        6.76     0.81   0.623
  8                         24.90       0.00       1.33       1.39      19.75       0.00      19.75        2.75     0.34   0.793
  9                         24.90       0.00       1.37       0.70      20.38       0.00      20.38        2.38     0.30   0.818
  10                        24.90       0.00       1.18       4.05      17.57       0.00      17.57        3.96     0.50   0.706
  11                        24.90       0.00       1.28       2.38      18.89       0.00      18.89        9.36     1.16   0.759
  12                        24.90       0.00       1.00       7.16      14.96       0.00      14.96        7.30     0.91   0.601
  13                        24.90       0.00       1.26       2.68      18.65       0.00      18.65        8.44     1.05   0.749
  14                        24.90       0.00       1.26       2.72      18.72       0.00      18.72        3.53     0.44   0.752
  15                        24.90       0.00       1.16       4.38      17.27       0.00      17.27        5.84     0.73   0.694
  16                        24.90       0.00       1.21       3.62      17.88       0.00      17.88        5.28     0.65   0.718
  17                        24.90       0.00       1.13       4.97      16.77       0.00      16.77        7.02     0.87   0.674
  18                        24.90       0.00       1.30       1.96      19.24       0.00      19.24        7.94     0.98   0.773
  19                        24.90       0.00       1.29       2.05      19.14       0.00      19.14        4.30     0.53   0.769
  20                        24.90       0.00       1.29       2.19      18.91       0.00      18.91       10.15     1.20   0.759
  21                        24.90       0.00       1.37       0.73      20.24       0.00      20.24        6.35     0.79   0.813
  22                        24.90       0.00       1.34       1.18      19.85       0.00      19.85        2.44     0.30   0.797
  23                        24.90       0.00       1.24       3.05      18.28       0.00      18.28       10.47     1.27   0.734
  24                        24.90       0.00       1.19       3.80      17.64       0.00      17.64        3.13     0.38   0.708
  25                        24.90       0.00       1.28       2.34      19.00       0.00      19.00        3.85     0.48   0.763
  26                        24.90       0.00       1.09       5.68      16.03       0.00      16.03        5.63     0.66   0.644
  27                        24.90       0.00       1.30       1.86      19.18       0.00      19.18        8.10     0.96   0.770
  28                        24.90       0.00       1.33       1.37      19.65       0.00      19.65        9.29     1.12   0.789
  29                        24.90       0.00       1.19       3.86      17.76       0.00      17.76        4.15     0.52   0.713
  30                        24.90       0.00       1.36       0.84      20.37       0.00      20.37        1.46     0.19   0.818
  31                        24.90       0.00       1.38       0.52      20.45       0.00      20.45        4.51     0.56   0.821
  32                        24.90       0.00       1.35       1.11      19.94       0.00      19.94        8.61     1.06   0.801
  33                        24.90       0.00       1.36       0.81      20.16       0.00      20.16        7.10     0.87   0.809
  34                        24.90       0.00       1.27       2.52      18.79       0.00      18.79        5.51     0.68   0.754
  35                        24.90       0.00       1.30       1.88      19.31       0.00      19.31        8.01     0.99   0.775
  36                        24.90       0.00       1.07       5.93      16.02       0.00      16.02        6.30     0.78   0.643
  37                        24.90       0.00       1.33       1.34      19.74       0.00      19.74        4.38     0.54   0.793
  38                        24.90       0.00       1.25       2.82      18.56       0.00      18.56        7.08     0.88   0.745
  39                        24.90       0.00       1.13       4.95      16.82       0.00      16.82        7.10     0.89   0.675
  40                        24.90       0.00       1.26       2.69      18.65       0.00      18.65        4.27     0.53   0.749
  41                        24.90       0.00       1.29       2.19      19.14       0.00      19.14        3.77     0.48   0.769
  42                        24.90       0.00       1.28       2.21      18.92       0.00      18.92        4.67     0.56   0.760
  43                        24.90       0.00       1.08       5.82      15.99       0.00      15.99       12.64     1.51   0.642
  44                        24.90       0.00       1.15       4.54      17.03       0.00      17.03        8.23     1.00   0.684
  45                        24.90       0.00       1.08       5.78      16.07       0.00      16.07       11.63     1.41   0.645
  46                        24.90       0.00       1.05       6.44      15.64       0.00      15.64        7.82     0.98   0.628
  47                        24.90       0.00       1.10       5.51      16.29       0.00      16.29       18.99     2.31   0.654
  48                        24.90       0.00       1.31       1.72      19.27       0.00      19.27       11.18     1.32   0.774
  49                        24.90       0.00       1.20       3.69      17.66       0.00      17.66       11.96     1.41   0.709
  50                        24.90       0.00       1.33       1.40      19.43       0.00      19.43        7.64     0.86   0.780
  51                        24.90       0.00       1.27       2.42      18.63       0.00      18.63        3.49     0.40   0.748
  52                        24.90       0.00       0.62      13.97       9.36       0.00       9.36        9.60     1.20   0.376
  53                        24.90       0.00       0.90       9.07      13.46       0.00      13.46       14.33     1.78   0.540
  54                        24.90       0.00       1.11       5.36      16.46       0.00      16.46        4.01     0.50   0.661
  55                        24.90       0.00       0.63      13.71       9.57       0.00       9.57        7.55     0.95   0.384
  56                        24.90       0.00       0.24      20.68       3.70       0.00       3.70        3.01     0.37   0.149
  57                        24.90       0.00       1.25       2.77      18.42       0.00      18.42       15.31     1.80   0.740
  58                        24.90       0.00       1.16       4.40      17.25       0.00      17.25        2.84     0.35   0.693
  59                        24.90       0.00       1.13       4.89      16.97       0.00      16.97        2.16     0.27   0.682
  60                        24.90       0.00       0.42      17.40       6.48       0.00       6.48        1.86     0.23   0.260
  61                        24.90       0.00       0.66      13.24       9.87       0.00       9.87        3.72     0.47   0.397
  62                        24.90       0.00       0.92       8.66      13.65       0.00      13.65       16.00     1.93   0.548
  63                        24.90       0.00       1.25       2.74      18.37       0.00      18.37       35.52     4.04   0.738
  64                        24.90       0.00       0.94       8.37      14.02       0.00      14.02        3.01     0.37   0.563
  65                        24.90       0.00       1.27       2.43      18.65       0.00      18.65       12.54     1.45   0.749
  66                        24.90       0.00       1.00       7.20      14.83       0.00      14.83        3.78     0.45   0.595
  67                        24.90       0.00       0.94       8.36      14.07       0.00      14.07        4.55     0.56   0.565
  68                        24.90       0.00       1.12       5.06      16.74       0.00      16.74        1.86     0.23   0.672
  69                        24.90       0.00       0.66      13.25      10.04       0.00      10.04        3.21     0.40   0.403
  70                        24.90       0.00       0.93       8.51      13.81       0.00      13.81       11.36     1.40   0.555
  71                        24.90       0.00       1.15       4.65      17.07       0.00      17.07        2.09     0.26   0.686
  72                        24.90       0.00       1.21       3.55      17.99       0.00      17.99        2.24     0.28   0.722
  73                        24.90       0.00       1.10       5.56      16.39       0.00      16.39        2.72     0.34   0.658
  74                        24.90       0.00       1.04       6.47      15.62       0.00      15.62        3.36     0.42   0.627
  75                        24.90       0.00       1.16       4.41      17.29       0.00      17.29        2.49     0.31   0.694
  76                        24.90       0.00       1.22       3.34      18.20       0.00      18.20        1.76     0.22   0.731
  77                        24.90       0.00       1.30       1.92      19.32       0.00      19.32        2.09     0.26   0.776
  78                        24.90       0.00       1.26       2.73      18.63       0.00      18.63        2.05     0.25   0.748
  79                        24.90       0.00       0.55      15.17       8.36       0.00       8.36        8.86     1.10   0.336
  80                        24.90       0.00       1.04       6.57      15.37       0.00      15.37        9.62     1.17   0.617
  81                        24.90       0.00       1.05       6.28      15.60       0.00      15.60        6.80     0.82   0.627
  82                        24.90       0.00       1.01       7.07      14.96       0.00      14.96       13.71     1.65   0.601
  83                        24.90       0.00       1.26       2.61      18.79       0.00      18.79        2.30     0.29   0.754
  84                        24.90       0.00       1.19       3.87      17.68       0.00      17.68        2.11     0.26   0.710
  85                        24.90       0.00       1.40       0.19      20.83       0.00      20.83        1.94     0.25   0.836
  86                        24.90       0.00       1.29       2.10      19.17       0.00      19.17        2.82     0.35   0.770
  87                        24.90       0.00       1.38       0.53      20.40       0.00      20.40        2.68     0.33   0.819
  88                        24.90       0.00       1.23       3.11      18.38       0.00      18.38        1.76     0.22   0.738
  89                        24.90       0.00       1.30       2.00      19.28       0.00      19.28        3.71     0.47   0.774
  90                        24.90       0.00       1.41       0.00      21.05       0.00      21.05        0.24     0.03   0.845
  91                        24.90       0.00       1.17       4.17      17.27       0.00      17.27        3.77     0.44   0.694
  92                        24.90       0.00       1.30       1.94      19.31       0.00      19.31        2.41     0.30   0.776
  93                        24.90       0.00       1.06       6.19      15.76       0.00      15.76        8.06     0.99   0.633
  94                        24.90       0.00       0.95       8.07      14.39       0.00      14.39        1.01     0.13   0.578
  95                        24.90       0.00       1.41       0.03      20.95       0.00      20.95        0.46     0.06   0.841
  96                        24.90       0.00       1.14       4.82      16.96       0.00      16.96        2.07     0.26   0.681
  97                        24.90       0.00       1.38       0.53      20.49       0.00      20.49        2.04     0.26   0.823
  98                        24.90       0.00       1.14       4.70      17.08       0.00      17.08        2.10     0.27   0.686
  99                        24.90       0.00       0.57      14.90       8.62       0.00       8.62        3.20     0.40   0.346
  100                       24.90       0.00       0.63      13.78       9.57       0.00       9.57        2.46     0.31   0.384
  101                       24.90       0.00       0.65      13.51       9.77       0.00       9.77        4.79     0.59   0.392
  102                       24.90       0.00       1.05       6.33      15.67       0.00      15.67        3.82     0.48   0.629
  103                       24.90       0.00       0.35      18.69       5.41       0.00       5.41        1.97     0.24   0.217
  104                       24.90       0.00       0.24      20.70       3.65       0.00       3.65        3.54     0.44   0.147
  105                       24.90       0.00       1.16       4.42      17.31       0.00      17.31        2.26     0.29   0.695
  106                       24.90       0.00       0.63      13.81       9.51       0.00       9.51        2.32     0.29   0.382
  
  
  ******************
  Node Depth Summary
  ******************
  
  ---------------------------------------------------------------------------------
                                 Average  Maximum  Maximum  Time of Max    Reported
                                   Depth    Depth      HGL   Occurrence   Max Depth
  Node                 Type       Meters   Meters   Meters  days hr:min      Meters
  ---------------------------------------------------------------------------------
  jd1                  JUNCTION     0.09     0.18   273.18     0  02:00        0.18
  jd2                  JUNCTION     0.23     0.66   267.66     0  02:02        0.65
  jd3                  JUNCTION     2.85     3.00   266.00     0  01:27        3.00
  jd4                  JUNCTION     1.03     3.00   270.00     0  01:38        3.00
  jd5                  JUNCTION     0.06     0.13   274.13     0  02:00        0.13
  jd6                  JUNCTION     0.07     0.16   275.16     0  02:00        0.16
  jd7                  JUNCTION     0.26     0.47   264.57     0  02:00        0.47
  jd8                  JUNCTION     1.45     3.00   267.00     0  01:28        3.00
  jd9                  JUNCTION     1.09     3.00   268.00     0  01:31        3.00
  jd10                 JUNCTION     2.87     3.00   273.00     0  01:23        3.00
  jd11                 JUNCTION     0.07     0.14   282.14     0  02:00        0.14
  jd12                 JUNCTION     2.87     3.00   272.00     0  01:22        3.00
  jd13                 JUNCTION     0.08     0.18   289.18     0  02:00        0.18
  jd14                 JUNCTION     0.18     0.44   280.44     0  02:00        0.44
  jd15                 JUNCTION     0.18     0.41   278.41     0  02:01        0.41
  jd16                 JUNCTION     0.20     0.45   274.45     0  02:00        0.45
  jd17                 JUNCTION     1.71     3.00   278.80     0  01:31        3.00
  jd18                 JUNCTION     0.19     0.59   279.59     0  02:03        0.57
  jd19                 JUNCTION     0.72     3.00   270.00     0  01:34        3.00
  jd20                 JUNCTION     0.16     0.28   273.28     0  02:00        0.28
  jd21                 JUNCTION     2.85     3.00   273.00     0  01:27        3.00
  jd22                 JUNCTION     1.41     3.00   275.00     0  01:29        3.00
  jd23                 JUNCTION     0.15     0.37   278.37     0  02:00        0.37
  jd24                 JUNCTION     0.10     0.21   285.21     0  02:00        0.21
  jd25                 JUNCTION     0.16     0.36   279.36     0  02:00        0.36
  jd26                 JUNCTION     0.18     0.45   285.45     0  02:00        0.45
  jd27                 JUNCTION     0.14     0.33   291.33     0  02:00        0.33
  jd28                 JUNCTION     2.88     3.00   290.00     0  01:20        3.00
  jd29                 JUNCTION     0.07     0.14   299.14     0  02:00        0.14
  jd30                 JUNCTION     0.09     0.20   290.20     0  02:01        0.20
  jd31                 JUNCTION     0.98     3.00   275.00     0  01:34        1.24
  jd32                 JUNCTION     2.87     3.00   275.00     0  01:23        3.00
  jd33                 JUNCTION     0.13     0.29   289.29     0  02:00        0.29
  jd34                 JUNCTION     0.14     0.35   294.35     0  02:00        0.35
  jd35                 JUNCTION     2.89     3.00   292.00     0  01:17        3.00
  jd36                 JUNCTION     0.27     3.00   302.00     0  01:55        3.00
  jd37                 JUNCTION     0.24     3.00   306.00     0  01:56        3.00
  jd38                 JUNCTION     0.25     0.64   297.64     0  02:01        0.64
  jd39                 JUNCTION     2.85     3.00   297.00     0  01:27        3.00
  jd40                 JUNCTION     0.57     3.00   302.00     0  01:44        3.00
  jd41                 JUNCTION     2.81     3.00   296.00     0  01:38        3.00
  jd42                 JUNCTION     0.13     0.29   305.29     0  02:00        0.28
  jd43                 JUNCTION     0.52     3.00   300.00     0  01:37        3.00
  jd44                 JUNCTION     0.54     3.00   286.00     0  01:43        3.00
  jd45                 JUNCTION     2.85     3.00   282.00     0  01:26        3.00
  jd46                 JUNCTION     0.19     0.40   275.40     0  02:01        0.39
  jd47                 JUNCTION     0.11     0.23   315.23     0  02:00        0.23
  jd48                 JUNCTION     0.07     0.17   325.17     0  02:00        0.17
  jd49                 JUNCTION     0.17     0.38   289.38     0  02:00        0.38
  jd50                 JUNCTION     2.88     3.00   278.00     0  01:20        3.00
  jd51                 JUNCTION     2.80     3.00   313.00     0  01:39        3.00
  jd52                 JUNCTION     0.28     1.11   324.11     0  02:04        0.90
  jd53                 JUNCTION     0.32     3.00   325.00     0  01:58        1.66
  jd54                 JUNCTION     0.19     0.43   326.43     0  02:00        0.43
  jd55                 JUNCTION     1.28     3.00   325.00     0  01:36        2.05
  jd56                 JUNCTION     0.12     0.30   327.30     0  02:00        0.30
  jd59                 JUNCTION     2.78     3.00   320.80     0  01:42        3.00
  jd60                 JUNCTION     2.87     3.00   319.00     0  01:21        3.00
  jd61                 JUNCTION     0.10     0.21   329.21     0  02:00        0.21
  jd62                 JUNCTION     0.04     0.10   335.10     0  02:00        0.10
  jd63                 JUNCTION     0.05     0.10   324.10     0  02:00        0.10
  jd64                 JUNCTION     2.60     3.00   321.00     0  01:41        2.84
  jd65                 JUNCTION     1.50     3.00   307.00     0  01:28        3.00
  jd66                 JUNCTION     2.86     3.00   304.00     0  01:24        3.00
  jd69                 JUNCTION     0.16     0.35   333.35     0  02:00        0.35
  jd79                 JUNCTION     2.63     3.00   274.00     0  01:21        3.00
  jd80                 JUNCTION     1.72     3.00   279.00     0  01:23        3.00
  jd81                 JUNCTION     0.10     0.22   288.22     0  02:00        0.22
  jd83                 JUNCTION     2.90     3.00   323.00     0  01:15        3.00
  jd84                 JUNCTION     0.15     0.40   323.40     0  02:00        0.40
  jd85                 JUNCTION     2.87     3.00   324.00     0  01:22        3.00
  jd87                 JUNCTION     2.87     3.00   322.00     0  01:22        3.00
  jd89                 JUNCTION     0.11     0.24   324.24     0  02:00        0.24
  jd90                 JUNCTION     0.09     0.21   328.21     0  02:00        0.21
  jd92                 JUNCTION     0.10     0.21   326.21     0  02:00        0.21
  jd93                 JUNCTION     0.30     2.46   326.46     0  01:58        1.31
  jd94                 JUNCTION     0.17     0.39   326.59     0  02:01        0.38
  jd95                 JUNCTION     0.22     0.53   327.53     0  02:00        0.53
  jd96                 JUNCTION     2.89     3.00   308.00     0  01:18        3.00
  jd97                 JUNCTION     0.22     0.54   327.74     0  02:00        0.54
  jd98                 JUNCTION     0.13     0.29   329.29     0  02:00        0.29
  jd99                 JUNCTION     2.86     3.00   327.00     0  01:24        3.00
  jd101                JUNCTION     0.08     0.17   321.17     0  02:00        0.17
  jd102                JUNCTION     0.15     0.36   324.36     0  02:00        0.36
  jd103                JUNCTION     0.08     0.17   318.17     0  02:00        0.17
  jd106                JUNCTION     2.83     3.00   287.00     0  01:32        3.00
  jd107                JUNCTION     0.14     0.32   332.32     0  02:00        0.32
  jd108                JUNCTION     1.10     1.94   327.94     0  01:21        1.36
  jd109                JUNCTION     0.11     0.25   343.25     0  02:00        0.25
  jd110                JUNCTION     2.88     3.00   327.00     0  01:21        3.00
  jd111                JUNCTION     0.05     0.11   344.11     0  02:00        0.11
  jd112                JUNCTION     0.06     0.14   334.14     0  02:00        0.14
  jd113                JUNCTION     0.07     0.16   348.16     0  02:00        0.16
  jd114                JUNCTION     2.86     3.00   317.00     0  01:25        3.00
  jd117                JUNCTION     1.05     3.00   319.00     0  01:28        1.76
  jd118                JUNCTION     0.06     0.14   330.14     0  02:00        0.14
  jd120                JUNCTION     0.11     0.24   327.24     0  02:00        0.24
  jd121                JUNCTION     0.11     0.25   320.25     0  02:00        0.25
  jd122                JUNCTION     2.85     3.00   276.00     0  01:26        3.00
  jd123                JUNCTION     2.84     3.00   276.20     0  01:28        3.00
  jd124                JUNCTION     2.90     3.00   271.00     0  01:13        3.00
  jd125                JUNCTION     0.84     3.00   278.00     0  01:36        3.00
  jd126                JUNCTION     2.89     3.00   275.00     0  01:16        3.00
  jd135                JUNCTION     0.09     0.21   289.21     0  02:00        0.21
  jd136                JUNCTION     0.18     0.40   341.40     0  02:00        0.40
  psk1                 OUTFALL      0.06     0.14   279.14     0  02:00        0.14
  psk2                 OUTFALL      0.09     0.20   270.20     0  02:01        0.19
  psk3                 OUTFALL      0.20     0.45   271.45     0  02:00        0.45
  psk4                 OUTFALL      0.00     0.00   280.00     0  00:00        0.00
  psk5                 OUTFALL      0.09     0.18   263.18     0  02:00        0.18
  psk6                 OUTFALL      0.06     0.13   259.13     0  02:00        0.13
  psk7                 OUTFALL      0.26     0.47   262.47     0  02:00        0.47
  psk8                 OUTFALL      0.00     0.00   317.00     0  00:00        0.00
  
  
  *******************
  Node Inflow Summary
  *******************
  
  -------------------------------------------------------------------------------------------------
                                  Maximum  Maximum                  Lateral       Total        Flow
                                  Lateral    Total  Time of Max      Inflow      Inflow     Balance
                                   Inflow   Inflow   Occurrence      Volume      Volume       Error
  Node                 Type           CMS      CMS  days hr:min    10^6 ltr    10^6 ltr     Percent
  -------------------------------------------------------------------------------------------------
  jd1                  JUNCTION     0.457    0.716     0  02:00        3.69        6.01       0.222
  jd2                  JUNCTION     0.662    0.911     0  02:00        5.62        7.72       0.381
  jd3                  JUNCTION     0.813    2.156     0  02:00        6.75        22.5       1.787
  jd4                  JUNCTION     0.960    1.078     0  02:00        8.09        9.07       0.472
  jd5                  JUNCTION     0.300    0.507     0  02:00        2.38        4.18       0.097
  jd6                  JUNCTION     0.342    0.342     0  02:00        2.75        2.75       0.132
  jd7                  JUNCTION     0.177    1.895     0  02:00         1.4        22.9       0.233
  jd8                  JUNCTION     0.246    1.192     0  02:00        1.94        16.7       1.203
  jd9                  JUNCTION     0.189    1.257     0  02:00        1.49        15.4       0.309
  jd10                 JUNCTION     0.496    0.629     0  02:00        3.95        5.03       2.011
  jd11                 JUNCTION     0.728    0.728     0  02:00        5.83        5.83       0.143
  jd12                 JUNCTION     0.541    1.179     0  02:00        4.37        9.48       1.455
  jd13                 JUNCTION     0.981    0.981     0  02:00        7.93        7.93       0.123
  jd14                 JUNCTION     1.124    1.270     0  02:00        9.27        10.4       0.287
  jd15                 JUNCTION     0.483    1.051     0  02:00        3.84        8.36       0.820
  jd16                 JUNCTION     0.522    1.969     0  02:00        4.14        15.8       0.319
  jd17                 JUNCTION     1.065    2.465     0  02:00         8.6        24.1       2.810
  jd18                 JUNCTION     0.857    1.244     0  02:00        6.85        9.92       0.457
  jd19                 JUNCTION     0.799    1.439     0  02:00        6.36        14.4       0.271
  jd20                 JUNCTION     0.654    0.888     0  02:00        5.27        11.1       0.427
  jd21                 JUNCTION     0.300    2.105     0  02:00        2.44        21.1       1.599
  jd22                 JUNCTION     0.529    1.128     0  02:00         4.3        9.65       0.836
  jd23                 JUNCTION     0.529    1.484     0  02:00        4.26        11.8       0.245
  jd24                 JUNCTION     0.874    0.874     0  02:00        7.01        7.01       0.151
  jd25                 JUNCTION     0.681    0.989     0  02:00         5.5        7.95       0.320
  jd26                 JUNCTION     0.992    1.652     0  02:00        7.99        13.4       0.288
  jd27                 JUNCTION     0.995    1.651     0  02:00        8.22        13.8       0.272
  jd28                 JUNCTION     1.316    1.830     0  02:00        11.2        15.7       0.852
  jd29                 JUNCTION     0.562    0.562     0  02:00         4.5         4.5       0.058
  jd30                 JUNCTION     0.560    1.756     0  02:00        4.66        13.1       0.158
  jd31                 JUNCTION     0.378    1.298     0  01:32        3.12        6.87       6.954
  jd32                 JUNCTION     0.786    2.970     0  02:00        6.34        27.9       0.895
  jd33                 JUNCTION     0.783    1.325     0  02:00        6.29        10.5       0.153
  jd34                 JUNCTION     0.978    0.978     0  02:00        7.81        7.81       0.128
  jd35                 JUNCTION     0.887    2.753     0  02:00        7.09        24.6       0.525
  jd36                 JUNCTION     1.407    2.238     0  02:00        11.9        19.6       0.317
  jd37                 JUNCTION     1.510    1.510     0  02:00        12.6        12.6       0.214
  jd38                 JUNCTION     1.412    2.365     0  02:00        11.6        19.2       0.440
  jd39                 JUNCTION     0.994    3.404     0  02:00        8.05        35.1       1.459
  jd40                 JUNCTION     1.650    3.929     0  01:57        13.7        33.1       0.396
  jd41                 JUNCTION     1.171    4.208     0  02:00         9.6        39.8       5.634
  jd42                 JUNCTION     1.447    1.602     0  02:00        12.5        13.8       0.345
  jd43                 JUNCTION     1.783    3.179     0  02:00        14.3        24.9       0.562
  jd44                 JUNCTION     2.308    4.617     0  02:00          19          46       0.382
  jd45                 JUNCTION     0.857    3.083     0  02:00        7.63          30       1.091
  jd46                 JUNCTION     0.397    0.397     0  02:00        3.48        3.48       0.799
  jd47                 JUNCTION     1.402    1.402     0  02:00        11.3        11.3      -0.038
  jd48                 JUNCTION     0.400    0.400     0  02:00        3.21        3.21       0.128
  jd49                 JUNCTION     1.800    1.800     0  02:00        15.3        15.3       0.248
  jd50                 JUNCTION     1.931    4.320     0  02:00          16        50.4       0.843
  jd51                 JUNCTION     0.422    1.912     0  02:00        3.36        15.4       9.763
  jd52                 JUNCTION     0.818    3.416     0  02:00        6.79        26.3       0.420
  jd53                 JUNCTION     0.444    2.411     0  01:52        3.76        20.5       0.216
  jd54                 JUNCTION     0.256    1.269     0  02:00        2.03        10.2       0.332
  jd55                 JUNCTION     0.467    1.600     0  02:00        3.71        12.2       6.781
  jd56                 JUNCTION     0.286    0.836     0  02:00        2.26        6.59       0.243
  jd59                 JUNCTION     0.281    1.386     0  01:59        2.24        10.7       7.808
  jd60                 JUNCTION     0.500    1.065     0  02:00        4.01        8.57       1.531
  jd61                 JUNCTION     0.560    0.632     0  02:00        4.54        5.11       0.167
  jd62                 JUNCTION     0.231    0.231     0  02:00        1.85        1.85       0.043
  jd63                 JUNCTION     0.313    0.313     0  02:00        2.49        2.49       0.078
  jd64                 JUNCTION     0.262    0.647     0  02:00        2.09        5.17       7.729
  jd65                 JUNCTION     4.042    4.042     0  02:00        35.5        35.5       0.183
  jd66                 JUNCTION     0.589    1.720     0  02:00        4.78        13.8       2.367
  jd69                 JUNCTION     1.104    1.134     0  02:00        8.84        9.09       0.214
  jd79                 JUNCTION     1.045    1.865     0  01:59        8.42        15.1       1.166
  jd80                 JUNCTION     1.155    1.437     0  02:00        9.35        12.6       1.105
  jd81                 JUNCTION     0.869    0.869     0  02:00        7.09        7.09       0.046
  jd83                 JUNCTION     0.945    1.165     0  02:00        7.53        10.1       0.840
  jd84                 JUNCTION     1.203    1.203     0  02:00        9.59        9.59       0.186
  jd85                 JUNCTION     0.274    0.448     0  02:00        2.16        3.55       2.402
  jd87                 JUNCTION     0.222    0.532     0  02:00        1.76        4.27       1.742
  jd89                 JUNCTION     0.254    0.254     0  02:00        2.04        2.04       0.205
  jd90                 JUNCTION     0.263    0.263     0  02:00        2.09        2.09       0.125
  jd92                 JUNCTION     0.221    0.221     0  02:00        1.76        1.76       0.093
  jd93                 JUNCTION     0.454    0.998     0  02:00        3.77        8.15       0.359
  jd94                 JUNCTION     0.031    0.549     0  02:00       0.241        4.39       0.455
  jd95                 JUNCTION     0.058    0.523     0  02:00       0.456        4.17       0.361
  jd96                 JUNCTION     0.439    0.583     0  02:00        3.53        4.67       2.060
  jd97                 JUNCTION     0.466    0.466     0  02:00        3.71        3.71       0.084
  jd98                 JUNCTION     0.261    0.261     0  02:00        2.07        2.07       0.146
  jd99                 JUNCTION     0.127    0.349     0  02:00        1.01        3.37       1.707
  jd101                JUNCTION     0.343    0.673     0  02:00        2.72        5.39       0.014
  jd102                JUNCTION     0.333    0.333     0  02:00        2.68        2.68       0.255
  jd103                JUNCTION     0.234    0.234     0  02:00        1.86        1.86       0.039
  jd106                JUNCTION     0.185    1.067     0  02:00        1.46        8.38       4.878
  jd107                JUNCTION     0.266    0.866     0  02:00         2.1        6.91       0.326
  jd108                JUNCTION     0.290    0.290     0  02:00        2.32        2.33       2.855
  jd109                JUNCTION     0.476    0.476     0  02:00        3.81        3.81       0.060
  jd110                JUNCTION     0.371    0.551     0  02:00        3.01        4.46       3.449
  jd111                JUNCTION     0.306    0.306     0  02:00        2.45        2.45       0.078
  jd112                JUNCTION     0.353    0.993     0  02:00        2.82        7.96       0.117
  jd113                JUNCTION     0.244    0.244     0  02:00        1.96        1.96      -0.010
  jd114                JUNCTION     0.288    3.311     0  01:58        2.29        29.6       1.045
  jd117                JUNCTION     0.262    1.087     0  01:28        2.11        7.04       2.213
  jd118                JUNCTION     0.246    0.246     0  02:00        1.93        1.93       0.004
  jd120                JUNCTION     0.302    0.302     0  02:00        2.41        2.41       0.090
  jd121                JUNCTION     0.369    0.369     0  02:00           3           3       0.126
  jd122                JUNCTION     0.880    3.341     0  02:00        7.07        36.2       1.556
  jd123                JUNCTION     0.910    2.959     0  02:00        7.29        35.3       1.959
  jd124                JUNCTION     1.271    2.344     0  02:00        10.5        27.7       0.211
  jd125                JUNCTION     1.198    2.873     0  02:00        10.1          33       0.149
  jd126                JUNCTION     1.718    2.394     0  02:00        14.7        20.6       0.494
  jd135                JUNCTION     0.475    0.475     0  02:00        3.77        3.77       0.078
  jd136                JUNCTION     0.397    0.641     0  02:00        3.19        5.16       0.335
  psk1                 OUTFALL      0.000    0.474     0  02:00           0        3.77       0.000
  psk2                 OUTFALL      0.000    1.291     0  02:01           0        9.65       0.000
  psk3                 OUTFALL      0.000    1.947     0  02:00           0        15.7       0.000
  psk4                 OUTFALL      0.000    0.000     0  00:00           0           0       0.000 ltr
  psk5                 OUTFALL      0.000    0.461     0  02:00           0         3.9       0.000
  psk6                 OUTFALL      0.000    0.388     0  02:00           0         3.2       0.000
  psk7                 OUTFALL      0.000    1.893     0  02:00           0        22.8       0.000
  psk8                 OUTFALL      0.000    0.000     0  00:00           0           0       0.000 ltr
  
  
  **********************
  Node Surcharge Summary
  **********************
  
  Surcharging occurs when water rises above the top of the highest conduit.
  ---------------------------------------------------------------------
                                               Max. Height   Min. Depth
                                   Hours       Above Crown    Below Rim
  Node                 Type      Surcharged         Meters       Meters
  ---------------------------------------------------------------------
  jd3                  JUNCTION       10.54          2.200        0.000
  jd4                  JUNCTION        2.84          2.200        0.000
  jd8                  JUNCTION        4.08          2.200        0.000
  jd9                  JUNCTION        3.28          2.200        0.000
  jd10                 JUNCTION       10.61          2.400        0.000
  jd12                 JUNCTION       10.63          2.400        0.000
  jd17                 JUNCTION        4.42          2.200        0.000
  jd19                 JUNCTION        1.50          2.200        0.000
  jd21                 JUNCTION       10.54          2.200        0.000
  jd22                 JUNCTION       10.51          2.400        0.000
  jd28                 JUNCTION       10.65          2.400        0.000
  jd31                 JUNCTION       10.43          2.200        0.000
  jd32                 JUNCTION       10.61          2.200        0.000
  jd35                 JUNCTION       10.71          2.400        0.000
  jd36                 JUNCTION        0.20          2.400        0.000
  jd37                 JUNCTION        0.12          2.400        0.000
  jd39                 JUNCTION       10.54          2.000        0.000
  jd40                 JUNCTION        0.85          2.200        0.000
  jd41                 JUNCTION       10.35          1.000        0.000
  jd43                 JUNCTION        0.56          2.200        0.000
  jd44                 JUNCTION        0.58          2.000        0.000
  jd45                 JUNCTION       10.56          2.000        0.000
  jd50                 JUNCTION       10.67          2.200        0.000
  jd51                 JUNCTION       10.34          1.350        0.000
  jd53                 JUNCTION        0.16          1.800        0.000
  jd55                 JUNCTION        1.41          1.500        0.000
  jd59                 JUNCTION       10.30          1.500        0.000
  jd60                 JUNCTION       10.64          2.400        0.000
  jd64                 JUNCTION       10.31          1.800        0.000
  jd65                 JUNCTION        3.70          2.400        0.000
  jd66                 JUNCTION       10.60          2.200        0.000
  jd79                 JUNCTION       10.64          2.400        0.000
  jd80                 JUNCTION        5.94          2.400        0.000
  jd83                 JUNCTION       10.75          2.400        0.000
  jd85                 JUNCTION       10.63          2.400        0.000
  jd87                 JUNCTION       10.63          2.400        0.000
  jd93                 JUNCTION        0.18          1.664        0.536
  jd96                 JUNCTION       10.69          2.200        0.000
  jd99                 JUNCTION       10.59          2.400        0.000
  jd106                JUNCTION       10.46          2.000        0.000
  jd108                JUNCTION       10.64          0.936        1.064
  jd110                JUNCTION       10.64          2.000        0.000
  jd114                JUNCTION       10.58          2.000        0.000
  jd117                JUNCTION       10.53          2.200        0.000
  jd122                JUNCTION       10.56          2.200        0.000
  jd123                JUNCTION       10.53          2.200        0.000
  jd124                JUNCTION       10.77          2.400        0.000
  jd125                JUNCTION        2.08          2.200        0.000
  jd126                JUNCTION       10.72          2.400        0.000
  
  
  *********************
  Node Flooding Summary
  *********************
  
  Flooding refers to all water that overflows a node, whether it ponds or not.
  --------------------------------------------------------------------------
                                                             Total   Maximum
                                 Maximum   Time of Max       Flood    Ponded
                        Hours       Rate    Occurrence      Volume     Depth
  Node                 Flooded       CMS   days hr:min    10^6 ltr    Meters
  --------------------------------------------------------------------------
  jd3                    10.54     2.156      0  02:00      22.062     0.000
  jd4                     1.48     0.567      0  02:00       1.015     0.000
  jd8                     1.23     0.355      0  01:28       0.349     0.000
  jd9                     0.87     0.499      0  01:31       0.598     0.000
  jd10                   10.61     0.629      0  02:00       4.932     0.000
  jd12                   10.63     1.179      0  02:00       9.340     0.000
  jd17                    3.09     1.636      0  02:00       5.611     0.000
  jd19                    0.53     0.427      0  01:34       0.451     0.000
  jd21                   10.49     2.105      0  02:00      20.481     0.000
  jd22                    0.52     0.337      0  01:29       0.345     0.000
  jd28                   10.65     1.829      0  02:00      15.605     0.000
  jd31                    0.01     1.063      0  01:34       0.011     0.000
  jd32                   10.61     2.970      0  02:00      27.657     0.000
  jd35                   10.71     2.752      0  02:00      24.498     0.000
  jd36                    0.09     0.320      0  01:55       0.034     0.000
  jd37                    0.06     0.226      0  01:56       0.006     0.000
  jd39                   10.54     3.403      0  02:00      34.592     0.000
  jd40                    0.54     1.367      0  01:57       1.793     0.000
  jd41                   10.35     4.207      0  02:00      37.688     0.000
  jd43                    0.52     1.347      0  02:00       1.830     0.000
  jd44                    0.38     1.104      0  01:43       0.675     0.000
  jd45                   10.56     3.082      0  02:00      29.630     0.000
  jd50                   10.67     4.319      0  02:00      49.937     0.000
  jd51                   10.34     1.912      0  02:00      14.054     0.000
  jd53                    0.01     0.250      0  01:58       0.002     0.000
  jd55                    0.01     1.073      0  01:36       0.021     0.000
  jd59                   10.30     1.385      0  02:00       9.913     0.000
  jd60                   10.64     1.065      0  02:00       8.437     0.000
  jd64                    0.02     0.539      0  01:42       0.023     0.000
  jd65                    3.66     2.946      0  02:00      12.167     0.000
  jd66                   10.60     1.720      0  02:00      13.531     0.000
  jd79                    4.08     1.631      0  01:59       9.040     0.000
  jd80                    3.82     1.279      0  02:00       7.176     0.000
  jd83                   10.75     1.165      0  02:00       9.984     0.000
  jd85                   10.63     0.448      0  02:00       3.472     0.000
  jd87                   10.63     0.532      0  02:00       4.195     0.000
  jd96                   10.69     0.583      0  02:00       4.577     0.000
  jd99                   10.59     0.349      0  02:00       3.315     0.000
  jd106                  10.46     1.067      0  02:00       7.986     0.000
  jd110                  10.64     0.551      0  02:00       4.309     0.000
  jd114                  10.58     3.305      0  01:58      29.252     0.000
  jd117                   0.01     1.007      0  01:28       0.020     0.000
  jd122                  10.56     3.341      0  02:00      35.505     0.000
  jd123                   9.15     2.644      0  02:00      22.909     0.000
  jd124                  10.77     2.344      0  02:00      27.644     0.000
  jd125                   0.47     0.760      0  01:36       0.537     0.000
  jd126                  10.72     2.393      0  02:00      20.527     0.000
  
  
  ***********************
  Outfall Loading Summary
  ***********************
  
  -----------------------------------------------------------
                         Flow       Avg       Max       Total
                         Freq      Flow      Flow      Volume
  Outfall Node           Pcnt       CMS       CMS    10^6 ltr
  -----------------------------------------------------------
  psk1                  97.39     0.127     0.474       3.766
  psk2                  97.37     0.326     1.291       9.652
  psk3                  97.39     0.530     1.947      15.735
  psk4                   0.00     0.000     0.000       0.000
  psk5                  97.39     0.131     0.461       3.895
  psk6                  97.39     0.107     0.388       3.201
  psk7                  97.39     0.733     1.893      22.794
  psk8                   0.00     0.000     0.000       0.000
  -----------------------------------------------------------
  System                73.04     1.955     0.000      59.043
  
  
  ********************
  Link Flow Summary
  ********************
  
  -----------------------------------------------------------------------------
                                 Maximum  Time of Max   Maximum    Max/    Max/
                                  |Flow|   Occurrence   |Veloc|    Full    Full
  Link                 Type          CMS  days hr:min     m/sec    Flow   Depth
  -----------------------------------------------------------------------------
  GQ1                  CONDUIT     0.261     0  02:01      1.89    0.69    0.49
  GQ2                  CONDUIT     0.753     0  02:01      2.32    0.36    0.43
  GQ3                  CONDUIT     0.474     0  02:00      5.73    0.02    0.09
  GQ4                  CONDUIT     0.510     0  02:07      1.80    1.00    1.00
  GQ5                  CONDUIT     0.842     0  02:02      1.75    0.70    0.91
  GQ6                  CONDUIT     0.249     0  02:00      1.20    0.11    0.53
  GQ7                  CONDUIT     1.675     0  01:58      3.66    1.00    1.00
  GQ8                  CONDUIT     0.478     0  02:00      1.20    0.46    0.74
  GQ9                  CONDUIT     1.299     0  02:00      3.27    0.46    0.74
  GQ10                 CONDUIT     1.134     0  05:12      4.10    1.04    1.00
  GQ11                 CONDUIT     0.155     0  02:00      1.91    0.17    0.38
  GQ12                 CONDUIT     0.175     0  02:00      0.91    0.19    0.65
  GQ13                 CONDUIT     0.118     0  02:00      0.54    0.06    0.58
  GQ14                 CONDUIT     0.058     0  02:00      0.94    0.08    0.18
  GQ15                 CONDUIT     0.149     0  02:00      4.11    0.60    0.51
  GQ16                 CONDUIT     1.213     0  02:01      3.90    0.59    0.42
  GQ17                 CONDUIT     0.282     0  02:00      1.57    0.09    0.40
  GQ18                 CONDUIT     1.058     0  02:00      2.50    4.77    0.79
  GQ19                 CONDUIT     0.378     0  02:00      1.94    0.04    0.31
  GQ20                 CONDUIT     0.083     0  02:00      0.45    0.04    0.36
  GQ21                 CONDUIT     0.304     0  02:00      1.39    0.09    0.40
  GQ22                 CONDUIT     0.308     0  02:00      1.70    0.09    0.28
  GQ23                 CONDUIT     0.555     0  02:00      2.16    0.27    0.36
  GQ24                 CONDUIT     0.873     0  02:00      2.22    0.43    0.73
  GQ25                 CONDUIT     0.542     0  02:00      3.56    0.61    0.53
  GQ26                 CONDUIT     0.401     0  02:00      2.53    0.47    0.55
  GQ27                 CONDUIT     0.600     0  02:00      2.46    0.60    0.81
  GQ28                 CONDUIT     0.242     0  02:00      0.67    0.26    0.67
  GQ29                 CONDUIT     0.982     0  01:32      2.30    0.46    1.00
  GQ30                 CONDUIT     0.824     0  01:46      2.91    1.00    1.00
  GQ31                 CONDUIT     0.432     0  02:00      1.80    0.58    0.79
  GQ32                 CONDUIT     0.656     0  02:00      2.96    1.05    0.78
  GQ33                 CONDUIT     1.434     0  02:01      5.07    1.00    1.00
  GQ34                 CONDUIT     0.292     0  02:00      1.38    0.46    0.74
  GQ35                 CONDUIT     0.571     0  01:55      2.15    1.06    1.00
  GQ36                 CONDUIT     0.953     0  01:58      3.37    1.18    1.00
  GQ37                 CONDUIT     0.354     0  02:00      1.50    0.51    0.78
  GQ38                 CONDUIT     0.162     0  02:01      0.81    0.23    0.66
  GQ39                 CONDUIT     0.653     0  02:00      2.49    0.84    0.88
  GQ40                 CONDUIT     0.471     0  02:00      2.42    0.59    0.65
  GQ41                 CONDUIT     1.057     0  02:01      1.53    0.49    0.82
  GQ42                 CONDUIT     1.359     0  01:59      2.70    1.00    1.00
  GQ43                 CONDUIT     2.312     0  01:56      4.70    1.03    1.00
  GQ44                 CONDUIT     0.946     0  01:55      1.88    1.00    1.00
  GQ45                 CONDUIT     0.641     0  02:00      1.81    0.26    0.67
  GQ46                 CONDUIT     1.068     0  01:52      2.14    1.00    1.00
  GQ47                 CONDUIT     0.132     0  02:00      0.72    0.13    0.62
  GQ48                 CONDUIT     0.131     0  02:00      0.71    0.13    0.62
  GQ49                 CONDUIT     0.507     0  02:00      2.61    0.19    0.65
  GQ50                 CONDUIT     0.146     0  02:00      1.04    0.19    0.51
  GQ51                 CONDUIT     0.571     0  02:00      2.67    0.87    0.71
  GQ52                 CONDUIT     0.368     0  02:01      0.91    0.49    0.75
  GQ53                 CONDUIT     2.225     0  02:03      2.83    1.00    1.00
  GQ54                 CONDUIT     0.320     0  02:00      1.57    0.27    0.68
  GQ55                 CONDUIT     0.245     0  02:00      1.29    0.17    0.64
  GQ56                 CONDUIT     2.008     0  01:39      4.26    1.10    1.00
  GQ57                 CONDUIT     0.417     0  02:00      1.15    0.27    0.68
  GQ58                 CONDUIT     0.868     0  02:00      2.39    0.27    0.68
  GQ59                 CONDUIT     1.203     0  02:01      2.39    1.00    1.00
  GQ60                 CONDUIT     1.600     0  02:00      1.15    0.39    0.87
  GQ61                 CONDUIT     0.205     0  02:00      0.57    0.03    0.56
  GQ62                 CONDUIT     0.424     0  02:00      0.70    0.04    0.57
  GQ63                 CONDUIT     0.969     0  02:00      1.43    0.03    0.56
  GQ64                 CONDUIT     0.071     0  02:00      1.35    0.06    0.26
  GQ65                 CONDUIT     0.031     0  02:00      0.33    0.06    0.37
  GQ66                 CONDUIT     0.124     0  02:00      0.78    0.04    0.57
  GQ67                 CONDUIT     0.647     0  01:59      0.57    0.45    1.00
  GQ68                 CONDUIT     0.610     0  02:00      1.13    0.19    0.65
  GQ69                 CONDUIT     1.132     0  02:00      2.92    0.40    0.72
  GQ70                 CONDUIT     0.388     0  02:00      7.45    0.06    0.16
  GQ71                 CONDUIT     0.461     0  02:00      5.40    0.11    0.23
  GQ72                 CONDUIT     1.893     0  02:00      5.19    0.45    0.47
  GQ73                 CONDUIT     1.291     0  02:01     11.89    0.08    0.20
  GQ74                 CONDUIT     0.249     0  02:00      1.31    0.05    0.30
  GQ75                 CONDUIT     0.291     0  02:01      0.59    0.08    0.60
  GQ76                 CONDUIT     1.947     0  02:00      5.63    0.42    0.45
  GQ77                 CONDUIT     0.000     0  00:00      0.00    0.00    0.21
  GQ78                 CONDUIT     0.827     0  01:57      2.99    0.90    0.99
  GQ79                 CONDUIT     0.234     0  02:00      1.08    0.50    0.73
  GQ80                 CONDUIT     0.282     0  02:00      1.00    0.46    0.99
  GQ81                 CONDUIT     0.605     0  01:29      2.23    3.83    1.00
  GQ82                 CONDUIT     0.417     0  02:00      2.03    0.29    0.68
  GQ83                 CONDUIT     0.450     0  02:00      2.76    0.29    0.56
  GQ84                 CONDUIT     0.980     0  02:00      3.90    0.78    0.83
  GQ85                 CONDUIT     0.220     0  02:00      0.88    0.38    0.83
  GQ86                 CONDUIT     0.129     0  02:00      0.76    0.06    0.58
  GQ87                 CONDUIT     0.045     0  02:00      0.26    0.07    0.59
  GQ88                 CONDUIT     0.309     0  02:00      1.51    0.27    0.68
  GQ89                 CONDUIT     0.253     0  02:00      1.20    0.33    0.70
  GQ90                 CONDUIT     0.262     0  02:00      1.29    0.26    0.68
  GQ91                 CONDUIT     0.221     0  02:00      1.08    0.27    0.68
  GQ92                 CONDUIT     0.519     0  02:01      1.75    0.75    0.57
  GQ93                 CONDUIT     0.546     0  02:01      1.45    0.47    0.74
  GQ94                 CONDUIT     0.998     0  02:00      2.29    1.18    1.00
  GQ95                 CONDUIT     0.144     0  02:00      0.49    0.04    0.57
  GQ96                 CONDUIT     0.465     0  02:00      1.31    0.79    0.67
  GQ97                 CONDUIT     0.260     0  02:00      1.89    0.47    0.49
  GQ98                 CONDUIT     0.222     0  02:00      0.98    0.31    0.75
  GQ99                 CONDUIT     0.465     0  02:00      0.95    0.03    0.56
  GQ100                CONDUIT     0.330     0  02:00      2.78    0.57    0.44
  GQ101                CONDUIT     0.233     0  02:00      1.35    0.17    0.64
  GQ102                CONDUIT     0.919     0  02:00      2.52    0.28    0.68
  GQ103                CONDUIT     0.423     0  02:00      1.75    0.65    0.80
  GQ104                CONDUIT     0.807     0  02:00      3.43    0.59    0.78
  GQ105                CONDUIT     1.021     0  01:28      2.04    3.25    1.00
  GQ106                CONDUIT     0.258     0  02:00      1.27    0.26    0.67
  GQ107                CONDUIT     0.966     0  02:00      3.68    0.87    0.88
  GQ108                CONDUIT     0.829     0  04:05      1.65    1.00    1.00
  GQ109                CONDUIT     0.191     0  02:00      1.35    0.26    0.55
  GQ110                CONDUIT     0.310     0  02:00      1.03    0.05    0.57
  GQ111                CONDUIT     0.284     0  02:00      1.40    0.26    0.67
  GQ112                CONDUIT     0.861     0  02:00      2.86    0.15    0.31
  GQ113                CONDUIT     0.475     0  02:00      3.62    0.36    0.47
  GQ114                CONDUIT     0.290     0  02:00      0.54    0.12    0.65
  GQ115                CONDUIT     0.125     0  02:00      0.99    0.02    0.18
  GQ116                CONDUIT     0.180     0  02:00      0.49    0.03    0.55
  GQ117                CONDUIT     0.640     0  02:00      4.24    0.40    0.34
  GQ118                CONDUIT     0.244     0  02:00      1.96    0.08    0.35
  GQ119                CONDUIT     2.154     0  01:58      4.30    0.94    1.00
  GQ120                CONDUIT     0.000     0  00:00      0.00    0.00    0.50
  GQ121                CONDUIT     0.872     0  02:00      1.74    0.62    1.00
  GQ122                CONDUIT     0.365     0  02:00      2.02    0.07    0.59
  GQ123                CONDUIT     0.245     0  02:00      1.75    0.12    0.62
  GQ124                CONDUIT     0.153     0  02:00      1.03    0.07    0.36
  GQ125                CONDUIT     0.301     0  02:00      1.42    0.34    0.70
  GQ126                CONDUIT     0.367     0  02:00      1.73    0.35    0.70
  GQ127                CONDUIT     0.790     0  01:51      1.69    1.01    1.00
  GQ128                CONDUIT     1.261     0  02:00      2.83    0.28    0.68
  GQ129                CONDUIT     1.313     0  02:00      2.61    1.00    1.00
  GQ130                CONDUIT     1.073     0  01:49      3.79    1.00    1.00
  GQ131                CONDUIT     0.678     0  02:00      2.61    0.79    0.86
  
  
  ***************************
  Flow Classification Summary
  ***************************
  
  -------------------------------------------------------------------------------------
                      Adjusted    ---------- Fraction of Time in Flow Class ---------- 
                       /Actual         Up    Down  Sub   Sup   Up    Down  Norm  Inlet 
  Conduit               Length    Dry  Dry   Dry   Crit  Crit  Crit  Crit  Ltd   Ctrl  
  -------------------------------------------------------------------------------------
  GQ1                     1.00   0.03  0.00  0.00  0.01  0.96  0.00  0.00  0.01  0.00
  GQ2                     1.00   0.03  0.00  0.00  0.02  0.95  0.00  0.00  0.92  0.00
  GQ3                     1.00   0.03  0.00  0.00  0.00  0.97  0.00  0.00  0.11  0.00
  GQ4                     1.00   0.03  0.00  0.00  0.97  0.01  0.00  0.00  0.57  0.00
  GQ5                     1.00   0.03  0.00  0.00  0.97  0.00  0.00  0.00  0.87  0.00
  GQ6                     1.00   0.03  0.00  0.00  0.97  0.01  0.00  0.00  0.92  0.00
  GQ7                     1.00   0.03  0.00  0.00  0.19  0.78  0.00  0.00  0.14  0.00
  GQ8                     1.00   0.03  0.00  0.00  0.97  0.00  0.00  0.00  0.90  0.00
  GQ9                     1.00   0.03  0.00  0.00  0.88  0.10  0.00  0.00  0.92  0.00
  GQ10                    1.00   0.03  0.00  0.00  0.90  0.08  0.00  0.00  0.59  0.00
  GQ11                    1.00   0.03  0.00  0.00  0.30  0.67  0.00  0.00  0.91  0.00
  GQ12                    1.00   0.03  0.00  0.00  0.97  0.01  0.00  0.00  0.92  0.00
  GQ13                    1.00   0.03  0.00  0.00  0.97  0.00  0.00  0.00  0.92  0.00
  GQ14                    1.00   0.03  0.00  0.00  0.97  0.00  0.00  0.00  0.00  0.00
  GQ15                    1.00   0.03  0.00  0.00  0.00  0.97  0.00  0.00  0.01  0.00
  GQ16                    1.00   0.03  0.00  0.00  0.00  0.97  0.00  0.00  0.00  0.00
  GQ17                    1.00   0.03  0.00  0.00  0.94  0.04  0.00  0.00  0.92  0.00
  GQ18                    1.00   0.03  0.00  0.00  0.87  0.11  0.00  0.00  0.02  0.00
  GQ19                    1.00   0.03  0.00  0.00  0.85  0.13  0.00  0.00  0.92  0.00
  GQ20                    1.00   0.03  0.00  0.00  0.97  0.00  0.00  0.00  0.92  0.00
  GQ21                    1.00   0.03  0.00  0.00  0.42  0.56  0.00  0.00  0.92  0.00
  GQ22                    1.00   0.03  0.00  0.00  0.00  0.97  0.00  0.00  0.92  0.00
  GQ23                    1.00   0.03  0.00  0.00  0.00  0.97  0.00  0.00  0.13  0.00
  GQ24                    1.00   0.03  0.00  0.00  0.97  0.00  0.00  0.00  0.92  0.00
  GQ25                    1.00   0.03  0.00  0.00  0.00  0.97  0.00  0.00  0.00  0.00
  GQ26                    1.00   0.03  0.00  0.00  0.00  0.97  0.00  0.00  0.88  0.00
  GQ27                    1.00   0.03  0.00  0.00  0.87  0.10  0.00  0.00  0.87  0.00
  GQ28                    1.00   0.03  0.00  0.00  0.97  0.00  0.00  0.00  0.91  0.00
  GQ29                    1.00   0.03  0.00  0.00  0.97  0.00  0.00  0.00  0.04  0.00
  GQ30                    1.00   0.03  0.00  0.00  0.96  0.02  0.00  0.00  0.02  0.00
  GQ31                    1.00   0.03  0.00  0.00  0.97  0.00  0.00  0.00  0.88  0.00
  GQ32                    1.00   0.03  0.00  0.00  0.00  0.97  0.00  0.00  0.01  0.00
  GQ33                    1.00   0.03  0.00  0.00  0.54  0.44  0.00  0.00  0.86  0.00
  GQ34                    1.00   0.03  0.00  0.00  0.95  0.02  0.00  0.00  0.92  0.00
  GQ35                    1.00   0.03  0.00  0.00  0.07  0.90  0.00  0.00  0.79  0.00
  GQ36                    1.00   0.03  0.00  0.00  0.03  0.95  0.00  0.00  0.87  0.00
  GQ37                    1.00   0.03  0.00  0.00  0.97  0.00  0.00  0.00  0.89  0.00
  GQ38                    1.00   0.03  0.00  0.00  0.97  0.00  0.00  0.00  0.91  0.00
  GQ39                    1.00   0.03  0.00  0.00  0.95  0.02  0.00  0.00  0.88  0.00
  GQ40                    1.00   0.03  0.00  0.00  0.00  0.97  0.00  0.00  0.92  0.00
  GQ41                    1.00   0.03  0.00  0.00  0.97  0.00  0.00  0.00  0.86  0.00
  GQ42                    1.00   0.03  0.00  0.00  0.97  0.00  0.00  0.00  0.72  0.00
  GQ43                    1.00   0.03  0.00  0.00  0.04  0.93  0.00  0.00  0.87  0.00
  GQ44                    1.00   0.03  0.00  0.00  0.97  0.00  0.00  0.00  0.57  0.00
  GQ45                    1.00   0.03  0.00  0.00  0.32  0.65  0.00  0.00  0.92  0.00
  GQ46                    1.00   0.03  0.00  0.00  0.49  0.49  0.00  0.00  0.67  0.00
  GQ47                    1.00   0.03  0.00  0.00  0.97  0.00  0.00  0.00  0.92  0.00
  GQ48                    1.00   0.03  0.00  0.00  0.97  0.00  0.00  0.00  0.92  0.00
  GQ49                    1.00   0.03  0.00  0.00  0.88  0.09  0.00  0.00  0.92  0.00
  GQ50                    1.00   0.03  0.00  0.00  0.97  0.00  0.00  0.00  0.92  0.00
  GQ51                    1.00   0.03  0.00  0.00  0.00  0.97  0.00  0.00  0.80  0.00
  GQ52                    1.00   0.03  0.00  0.00  0.97  0.00  0.00  0.00  0.90  0.00
  GQ53                    1.00   0.03  0.00  0.00  0.97  0.00  0.00  0.00  0.75  0.00
  GQ54                    1.00   0.03  0.00  0.00  0.97  0.00  0.00  0.00  0.92  0.00
  GQ55                    1.00   0.03  0.00  0.00  0.97  0.00  0.00  0.00  0.92  0.00
  GQ56                    1.00   0.03  0.00  0.00  0.09  0.88  0.00  0.00  0.80  0.00
  GQ57                    1.00   0.03  0.00  0.00  0.97  0.00  0.00  0.00  0.92  0.00
  GQ58                    1.00   0.03  0.00  0.00  0.92  0.05  0.00  0.00  0.92  0.00
  GQ59                    1.00   0.03  0.00  0.00  0.97  0.00  0.00  0.00  0.75  0.00
  GQ60                    1.00   0.03  0.00  0.00  0.97  0.00  0.00  0.00  0.05  0.00
  GQ61                    1.00   0.03  0.00  0.00  0.97  0.00  0.00  0.00  0.92  0.00
  GQ62                    1.00   0.03  0.00  0.00  0.97  0.00  0.00  0.00  0.91  0.00
  GQ63                    1.00   0.03  0.00  0.00  0.96  0.01  0.00  0.00  0.92  0.00
  GQ64                    1.00   0.03  0.00  0.00  0.28  0.70  0.00  0.00  0.92  0.00
  GQ65                    1.00   0.03  0.00  0.00  0.97  0.00  0.00  0.00  0.92  0.00
  GQ66                    1.00   0.03  0.00  0.00  0.97  0.01  0.00  0.00  0.92  0.00
  GQ67                    1.00   0.03  0.00  0.00  0.97  0.00  0.00  0.00  0.02  0.00
  GQ68                    1.00   0.03  0.00  0.00  0.97  0.00  0.00  0.00  0.92  0.00
  GQ69                    1.00   0.03  0.00  0.00  0.87  0.10  0.00  0.00  0.92  0.00
  GQ70                    1.00   0.03  0.00  0.00  0.00  0.97  0.00  0.00  0.00  0.00
  GQ71                    1.00   0.03  0.00  0.00  0.00  0.97  0.00  0.00  0.23  0.00
  GQ72                    1.00   0.03  0.00  0.00  0.00  0.97  0.00  0.00  0.27  0.00
  GQ73                    1.00   0.03  0.00  0.00  0.00  0.97  0.00  0.00  0.00  0.00
  GQ74                    1.00   0.03  0.00  0.00  0.92  0.05  0.00  0.00  0.92  0.00
  GQ75                    1.00   0.03  0.00  0.00  0.97  0.00  0.00  0.00  0.92  0.00
  GQ76                    1.00   0.03  0.00  0.00  0.00  0.97  0.00  0.00  0.19  0.00
  GQ77                    1.00   0.03  0.97  0.00  0.00  0.00  0.00  0.00  0.00  0.00
  GQ78                    1.00   0.03  0.00  0.00  0.90  0.08  0.00  0.00  0.86  0.00
  GQ79                    1.00   0.03  0.00  0.00  0.97  0.00  0.00  0.00  0.03  0.00
  GQ80                    1.00   0.03  0.00  0.00  0.97  0.00  0.00  0.00  0.64  0.00
  GQ81                    1.00   0.03  0.00  0.00  0.97  0.00  0.00  0.00  0.00  0.00
  GQ82                    1.00   0.03  0.00  0.00  0.92  0.06  0.00  0.00  0.91  0.00
  GQ83                    1.00   0.03  0.00  0.00  0.00  0.97  0.00  0.00  0.91  0.00
  GQ84                    1.00   0.03  0.00  0.00  0.12  0.86  0.00  0.00  0.91  0.00
  GQ85                    1.00   0.03  0.00  0.00  0.97  0.00  0.00  0.00  0.71  0.00
  GQ86                    1.00   0.03  0.00  0.00  0.97  0.00  0.00  0.00  0.92  0.00
  GQ87                    1.00   0.03  0.00  0.00  0.97  0.00  0.00  0.00  0.92  0.00
  GQ88                    1.00   0.03  0.00  0.00  0.97  0.00  0.00  0.00  0.92  0.00
  GQ89                    1.00   0.03  0.00  0.00  0.97  0.01  0.00  0.00  0.92  0.00
  GQ90                    1.00   0.03  0.00  0.00  0.95  0.03  0.00  0.00  0.92  0.00
  GQ91                    1.00   0.03  0.00  0.00  0.97  0.01  0.00  0.00  0.91  0.00
  GQ92                    1.00   0.03  0.00  0.00  0.89  0.08  0.00  0.00  0.00  0.00
  GQ93                    1.00   0.03  0.00  0.00  0.97  0.00  0.00  0.00  0.92  0.00
  GQ94                    1.00   0.03  0.00  0.00  0.38  0.59  0.00  0.00  0.04  0.00
  GQ95                    1.00   0.03  0.00  0.00  0.97  0.00  0.00  0.00  0.92  0.00
  GQ96                    1.00   0.03  0.00  0.00  0.97  0.00  0.00  0.00  0.62  0.00
  GQ97                    1.00   0.03  0.00  0.00  0.00  0.97  0.00  0.00  0.36  0.00
  GQ98                    1.00   0.03  0.00  0.00  0.97  0.00  0.00  0.00  0.80  0.00
  GQ99                    1.00   0.03  0.00  0.00  0.97  0.01  0.00  0.00  0.92  0.00
  GQ100                   1.00   0.03  0.00  0.00  0.00  0.97  0.00  0.00  0.00  0.00
  GQ101                   1.00   0.03  0.00  0.00  0.97  0.01  0.00  0.00  0.91  0.00
  GQ102                   1.00   0.03  0.00  0.00  0.90  0.08  0.00  0.00  0.92  0.00
  GQ103                   1.00   0.03  0.00  0.00  0.97  0.00  0.00  0.00  0.90  0.00
  GQ104                   1.00   0.03  0.00  0.00  0.77  0.21  0.00  0.00  0.92  0.00
  GQ105                   1.00   0.03  0.00  0.00  0.97  0.00  0.00  0.00  0.03  0.00
  GQ106                   1.00   0.03  0.00  0.00  0.96  0.01  0.00  0.00  0.92  0.00
  GQ107                   1.00   0.03  0.00  0.00  0.72  0.25  0.00  0.00  0.89  0.00
  GQ108                   1.00   0.03  0.00  0.00  0.97  0.00  0.00  0.00  0.03  0.00
  GQ109                   1.00   0.03  0.00  0.00  0.93  0.04  0.00  0.00  0.91  0.00
  GQ110                   1.00   0.03  0.00  0.00  0.97  0.01  0.00  0.00  0.92  0.00
  GQ111                   1.00   0.03  0.00  0.00  0.97  0.01  0.00  0.00  0.92  0.00
  GQ112                   1.00   0.03  0.00  0.00  0.00  0.97  0.00  0.00  0.90  0.00
  GQ113                   1.00   0.03  0.00  0.00  0.00  0.97  0.00  0.00  0.90  0.00
  GQ114                   1.00   0.03  0.00  0.00  0.97  0.00  0.00  0.00  0.03  0.00
  GQ115                   1.00   0.03  0.00  0.00  0.95  0.02  0.00  0.00  0.92  0.00
  GQ116                   1.00   0.03  0.00  0.00  0.97  0.00  0.00  0.00  0.92  0.00
  GQ117                   1.00   0.03  0.00  0.00  0.00  0.97  0.00  0.00  0.00  0.00
  GQ118                   1.00   0.03  0.00  0.00  0.38  0.60  0.00  0.00  0.91  0.00
  GQ119                   1.00   0.03  0.00  0.00  0.72  0.25  0.00  0.00  0.82  0.00
  GQ120                   1.00   0.03  0.02  0.00  0.95  0.00  0.00  0.00  0.00  0.00
  GQ121                   1.00   0.03  0.00  0.00  0.97  0.01  0.00  0.00  0.03  0.00
  GQ122                   1.00   0.03  0.00  0.00  0.95  0.03  0.00  0.00  0.92  0.00
  GQ123                   1.00   0.03  0.00  0.00  0.95  0.02  0.00  0.00  0.91  0.00
  GQ124                   1.00   0.03  0.00  0.00  0.96  0.01  0.00  0.00  0.92  0.00
  GQ125                   1.00   0.03  0.00  0.00  0.96  0.01  0.00  0.00  0.91  0.00
  GQ126                   1.00   0.03  0.00  0.00  0.97  0.01  0.00  0.00  0.92  0.00
  GQ127                   1.00   0.03  0.00  0.00  0.97  0.00  0.00  0.00  0.60  0.00
  GQ128                   1.00   0.03  0.00  0.00  0.08  0.90  0.00  0.00  0.88  0.00
  GQ129                   1.00   0.03  0.00  0.00  0.97  0.00  0.00  0.00  0.59  0.00
  GQ130                   1.00   0.03  0.00  0.00  0.84  0.13  0.00  0.00  0.60  0.00
  GQ131                   1.00   0.03  0.00  0.00  0.90  0.07  0.00  0.00  0.87  0.00
  
  
  *************************
  Conduit Surcharge Summary
  *************************
  
  ----------------------------------------------------------------------------
                                                           Hours        Hours 
                         --------- Hours Full --------   Above Full   Capacity
  Conduit                Both Ends  Upstream  Dnstream   Normal Flow   Limited
  ----------------------------------------------------------------------------
  GQ4                         3.65      3.65     10.57      0.01         0.01
  GQ5                         0.01      0.01     10.54      0.01         0.01
  GQ7                         0.73      0.73      2.08      0.01         0.01
  GQ8                         0.01      0.01      0.73      0.01         0.01
  GQ9                         0.01      0.01     10.67      0.01         0.01
  GQ10                        3.70      3.70     10.69      0.06         0.01
  GQ12                        0.01      0.01      7.87      0.01         0.01
  GQ13                        0.01      0.01      2.84      0.01         0.01
  GQ18                        0.01      0.01      4.08      6.20         0.01
  GQ24                        0.01      0.01     10.61      0.01         0.01
  GQ27                        0.01      0.01     10.51      0.01         0.01
  GQ28                        0.01      0.01     10.54      0.01         0.01
  GQ29                       10.43     10.43     10.54      0.01         0.01
  GQ30                       10.51     10.51     10.57      0.01         0.01
  GQ31                        0.01      0.01     10.71      0.01         0.01
  GQ32                        0.01      0.20      0.01      0.12         0.01
  GQ33                        0.20      0.20     10.71      0.01         0.01
  GQ34                        0.01      0.01      0.20      0.01         0.01
  GQ35                        0.12      0.12      0.20      0.09         0.01
  GQ36                        0.12      0.12      0.18      0.26         0.12
  GQ37                        0.01      0.01     10.65      0.01         0.01
  GQ38                        0.01      0.01     10.65      0.01         0.01
  GQ39                        0.01      0.01      7.87      0.01         0.01
  GQ41                        0.01      0.01     10.54      0.01         0.01
  GQ42                        0.85      0.85     10.56      0.01         0.01
  GQ43                        0.22      0.22      0.85      0.13         0.01
  GQ44                        3.28      3.28      4.08      0.01         0.01
  GQ45                        0.01      0.01      1.50      0.01         0.01
  GQ46                        1.50      1.50      3.28      0.01         0.01
  GQ47                        0.01      0.01     10.61      0.01         0.01
  GQ48                        0.01      0.01     10.63      0.01         0.01
  GQ49                        0.01      0.01     10.63      0.01         0.01
  GQ52                        0.01      0.01     10.43      0.01         0.01
  GQ53                        0.58      0.58     10.56      0.01         0.01
  GQ54                        0.01      0.01     10.64      0.01         0.01
  GQ55                        0.01      0.01     10.64      0.01         0.01
  GQ56                        0.51      0.56      0.73      0.29         0.10
  GQ57                        0.01      0.01      0.56      0.01         0.01
  GQ58                        0.01      0.01     10.51      0.01         0.01
  GQ59                        0.85      0.85     10.51      0.01         0.01
  GQ60                        0.01      0.01      1.41      0.01         0.01
  GQ61                        0.01      0.01     10.30      0.01         0.01
  GQ62                        0.01      0.01     10.34      0.01         0.01
  GQ63                        0.01      0.01     10.35      0.01         0.01
  GQ66                        0.01      0.01     10.40      0.01         0.01
  GQ67                       10.31     10.31     10.35      0.01         0.01
  GQ68                        0.01      0.01     10.46      0.01         0.01
  GQ69                        0.01      0.01     10.60      0.01         0.01
  GQ75                        0.01      0.01     10.46      0.01         0.01
  GQ78                        0.01      0.01     10.64      0.01         0.01
  GQ79                        0.01      0.01     10.64      0.01         0.01
  GQ80                        0.01      0.01      5.94      0.01         0.01
  GQ81                        5.84      5.94      7.87      4.41         1.22
  GQ82                        0.01      0.01      7.87      0.01         0.01
  GQ84                        0.01      0.01      0.95      0.01         0.01
  GQ85                        0.01      0.01     10.75      0.01         0.01
  GQ86                        0.01      0.01     10.63      0.01         0.01
  GQ87                        0.01      0.01     10.63      0.01         0.01
  GQ88                        0.01      0.01     10.63      0.01         0.01
  GQ89                        0.01      0.01     10.51      0.01         0.01
  GQ90                        0.01      0.01     10.44      0.01         0.01
  GQ91                        0.01      0.01     10.54      0.01         0.01
  GQ93                        0.01      0.01      0.18      0.01         0.01
  GQ94                        0.17      0.18      0.22      0.30         0.11
  GQ95                        0.01      0.01     10.69      0.01         0.01
  GQ98                        0.01      0.01     10.59      0.01         0.01
  GQ99                        0.01      0.01     10.36      0.01         0.01
  GQ101                       0.01      0.01     10.54      0.01         0.01
  GQ102                       0.01      0.01     10.56      0.01         0.01
  GQ103                       0.01      0.01     10.59      0.01         0.01
  GQ104                       0.01      0.01     10.59      0.01         0.01
  GQ105                      10.53     10.53     10.56      8.47         0.01
  GQ106                       0.01      0.01     10.54      0.01         0.01
  GQ107                       0.01      0.01     10.54      0.01         0.01
  GQ108                       4.42      4.42     10.53      0.01         0.01
  GQ110                       0.01      0.01     10.46      0.01         0.01
  GQ111                       0.01      0.01     10.54      0.01         0.01
  GQ114                       0.01      0.01     10.64      0.01         0.01
  GQ116                       0.01      0.01     10.64      0.01         0.01
  GQ119                       0.43      0.43     10.60      0.01         0.01
  GQ120                       0.01      0.01     10.58      0.01         0.01
  GQ121                      10.53     10.53     10.60      0.01         0.01
  GQ122                       0.01      0.01     10.53      0.01         0.01
  GQ123                       0.01      0.01     10.54      0.01         0.01
  GQ125                       0.01      0.01     10.54      0.01         0.01
  GQ126                       0.01      0.01     10.54      0.01         0.01
  GQ127                       0.22      0.22      0.43      0.03         0.01
  GQ128                       0.01      0.01      0.16      0.01         0.01
  GQ129                       2.08      2.08     10.61      0.01         0.01
  GQ130                       2.61      2.61     10.77      0.01         0.01
  GQ131                       0.01      0.01     10.72      0.01         0.01
  

  Analysis begun on:  Sat Mar 25 16:21:19 2023
  Analysis ended on:  Sat Mar 25 16:21:22 2023
  Total elapsed time: 00:00:03