
  OWA STORM WATER MANAGEMENT MODEL - VERSION v5.1.14 (OWA 2022-07-31)
  --------------------------------------------------------------

  INP file created by DSDAConvertToSwmmTools 
  version 0.0.1 EcoVista 
  Title/Notes: 
  
  
  *********************************************************
  NOTE: The summary statistics displayed in this report are
  based on results found at every computational time step,  
  not just on results from each reporting time step.
  *********************************************************
  
  ****************
  Analysis Options
  ****************
  Flow Units ............... CMS
  Process Models:
    Rainfall/Runoff ........ YES
    RDII ................... NO
    Snowmelt ............... NO
    Groundwater ............ NO
    Flow Routing ........... YES
    Ponding Allowed ........ NO
    Water Quality .......... NO
  Infiltration Method ...... GREEN_AMPT
  Flow Routing Method ...... DYNWAVE
  Surcharge Method ......... EXTRAN
  Starting Date ............ 07/15/2020 00:00:00
  Ending Date .............. 07/15/2020 10:00:00
  Antecedent Dry Days ...... 0.0
  Report Time Step ......... 00:30:00
  Wet Time Step ............ 00:05:00
  Dry Time Step ............ 01:00:00
  Routing Time Step ........ 30.00 sec
  Variable Time Step ....... YES
  Maximum Trials ........... 8
  Number of Threads ........ 1
  Head Tolerance ........... 0.001500 m
  
  
  **************************        Volume         Depth
  Runoff Quantity Continuity     hectare-m            mm
  **************************     ---------       -------
  Total Precipitation ......       211.016        52.800
  Evaporation Loss .........         3.373         0.844
  Infiltration Loss ........        56.393        14.111
  Surface Runoff ...........       143.542        35.917
  Final Storage ............         7.915         1.980
  Continuity Error (%) .....        -0.098
  
  
  **************************        Volume        Volume
  Flow Routing Continuity        hectare-m      10^6 ltr
  **************************     ---------     ---------
  Dry Weather Inflow .......         0.000         0.000
  Wet Weather Inflow .......       143.428      1434.291
  Groundwater Inflow .......         0.000         0.000
  RDII Inflow ..............         0.000         0.000
  External Inflow ..........         0.000         0.000
  External Outflow .........        12.334       123.337
  Flooding Loss ............       129.516      1295.172
  Evaporation Loss .........         0.000         0.000
  Exfiltration Loss ........         0.000         0.000
  Initial Stored Volume ....         0.000         0.000
  Final Stored Volume ......         1.408        14.079
  Continuity Error (%) .....         0.119
  
  
  *************************
  Highest Continuity Errors
  *************************
  Node jd51 (3.80%)
  Node jd64 (3.09%)
  Node jd59 (3.02%)
  Node jd31 (2.88%)
  Node jd41 (2.57%)
  
  
  ***************************
  Time-Step Critical Elements
  ***************************
  Link GQ73 (96.57%)
  
  
  ********************************
  Highest Flow Instability Indexes
  ********************************
  Link GQ67 (18)
  Link GQ114 (6)
  Link GQ29 (5)
  Link GQ46 (4)
  Link GQ94 (4)
  
  
  *************************
  Routing Time Step Summary
  *************************
  Minimum Time Step           :     0.70 sec
  Average Time Step           :     7.10 sec
  Maximum Time Step           :    30.00 sec
  Percent in Steady State     :    -0.00
  Average Iterations per Step :     4.48
  Percent Not Converging      :    19.37
  
  
  ***************************
  Subcatchment Runoff Summary
  ***************************
  
  ------------------------------------------------------------------------------------------------------------------------------
                            Total      Total      Total      Total     Imperv       Perv      Total       Total     Peak  Runoff
                           Precip      Runon       Evap      Infil     Runoff     Runoff     Runoff      Runoff   Runoff   Coeff
  Subcatchment                 mm         mm         mm         mm         mm         mm         mm    10^6 ltr      CMS
  ------------------------------------------------------------------------------------------------------------------------------
  1                         52.80       0.00       0.51      29.58      21.71       0.00      21.71        8.59     1.01   0.411
  2                         52.80       0.00       0.91      11.24      38.35       0.00      38.35       34.68     4.13   0.726
  3                         52.80       0.00       0.94       9.63      40.15       0.00      40.15       16.07     1.91   0.760
  4                         52.80       0.00       0.97       8.28      41.58       0.00      41.58        3.49     0.41   0.788
  5                         52.80       0.00       0.86      13.45      36.76       0.00      36.76        4.55     0.54   0.696
  6                         52.80       0.00       0.82      15.13      35.24       0.00      35.24        3.27     0.39   0.667
  7                         52.80       0.00       0.86      13.51      36.39       0.00      36.39       15.87     1.89   0.689
  8                         52.80       0.00       1.09       2.96      46.31       0.00      46.31        6.45     0.77   0.877
  9                         52.80       0.00       1.12       1.48      47.76       0.00      47.76        5.59     0.66   0.905
  10                        52.80       0.00       0.96       8.59      41.15       0.00      41.15        9.27     1.10   0.779
  11                        52.80       0.00       1.04       5.05      44.32       0.00      44.32       21.97     2.61   0.839
  12                        52.80       0.00       0.82      15.18      35.01       0.00      35.01       17.08     2.02   0.663
  13                        52.80       0.00       1.03       5.69      43.75       0.00      43.75       19.79     2.35   0.829
  14                        52.80       0.00       1.03       5.76      43.82       0.00      43.82        8.27     0.98   0.830
  15                        52.80       0.00       0.95       9.28      40.47       0.00      40.47       13.68     1.62   0.767
  16                        52.80       0.00       0.98       7.67      41.92       0.00      41.92       12.38     1.47   0.794
  17                        52.80       0.00       0.92      10.54      39.30       0.00      39.30       16.44     1.95   0.744
  18                        52.80       0.00       1.06       4.16      45.14       0.00      45.14       18.64     2.21   0.855
  19                        52.80       0.00       1.06       4.34      44.94       0.00      44.94       10.10     1.20   0.851
  20                        52.80       0.00       1.05       4.64      44.46       0.00      44.46       23.86     2.84   0.842
  21                        52.80       0.00       1.12       1.55      47.54       0.00      47.54       14.92     1.77   0.900
  22                        52.80       0.00       1.10       2.49      46.62       0.00      46.62        5.73     0.68   0.883
  23                        52.80       0.00       1.01       6.46      42.93       0.00      42.93       24.58     2.92   0.813
  24                        52.80       0.00       0.98       8.06      41.42       0.00      41.42        7.35     0.87   0.784
  25                        52.80       0.00       1.04       4.95      44.52       0.00      44.52        9.01     1.07   0.843
  26                        52.80       0.00       0.89      12.05      37.65       0.00      37.65       13.22     1.57   0.713
  27                        52.80       0.00       1.07       3.95      45.10       0.00      45.10       19.06     2.27   0.854
  28                        52.80       0.00       1.09       2.91      46.17       0.00      46.17       21.83     2.60   0.874
  29                        52.80       0.00       0.97       8.19      41.57       0.00      41.57        9.70     1.15   0.787
  30                        52.80       0.00       1.11       1.78      47.61       0.00      47.61        3.41     0.40   0.902
  31                        52.80       0.00       1.13       1.11      48.00       0.00      48.00       10.58     1.26   0.909
  32                        52.80       0.00       1.10       2.35      46.80       0.00      46.80       20.22     2.40   0.886
  33                        52.80       0.00       1.11       1.72      47.34       0.00      47.34       16.68     1.98   0.897
  34                        52.80       0.00       1.04       5.35      44.06       0.00      44.06       12.92     1.53   0.835
  35                        52.80       0.00       1.06       3.98      45.31       0.00      45.31       18.79     2.23   0.858
  36                        52.80       0.00       0.88      12.58      37.45       0.00      37.45       14.74     1.75   0.709
  37                        52.80       0.00       1.09       2.85      46.35       0.00      46.35       10.29     1.22   0.878
  38                        52.80       0.00       1.02       5.98      43.51       0.00      43.51       16.59     1.97   0.824
  39                        52.80       0.00       0.92      10.50      39.37       0.00      39.37       16.62     1.97   0.746
  40                        52.80       0.00       1.03       5.71      43.74       0.00      43.74       10.00     1.19   0.828
  41                        52.80       0.00       1.05       4.65      44.83       0.00      44.83        8.84     1.05   0.849
  42                        52.80       0.00       1.05       4.69      44.47       0.00      44.47       10.98     1.31   0.842
  43                        52.80       0.00       0.88      12.35      37.48       0.00      37.48       29.62     3.52   0.710
  44                        52.80       0.00       0.94       9.63      39.99       0.00      39.99       19.33     2.30   0.757
  45                        52.80       0.00       0.88      12.25      37.64       0.00      37.64       27.23     3.23   0.713
  46                        52.80       0.00       0.85      13.65      36.52       0.00      36.52       18.26     2.16   0.692
  47                        52.80       0.00       0.90      11.68      38.16       0.00      38.16       44.49     5.28   0.723
  48                        52.80       0.00       1.07       3.65      45.34       0.00      45.34       26.31     3.14   0.859
  49                        52.80       0.00       0.98       7.82      41.52       0.00      41.52       28.11     3.35   0.786
  50                        52.80       0.00       1.09       2.97      45.76       0.00      45.76       17.99     2.15   0.867
  51                        52.80       0.00       1.04       5.13      43.85       0.00      43.85        8.21     0.98   0.830
  52                        52.80       0.00       0.51      29.62      21.73       0.00      21.73       22.31     2.62   0.412
  53                        52.80       0.00       0.73      19.23      31.36       0.00      31.36       33.40     3.94   0.594
  54                        52.80       0.00       0.90      11.37      38.54       0.00      38.54        9.40     1.11   0.730
  55                        52.80       0.00       0.52      29.08      22.23       0.00      22.23       17.54     2.07   0.421
  56                        52.80       0.00       0.20      43.86       8.48       0.00       8.48        6.91     0.80   0.161
  57                        52.80       0.00       1.02       5.88      43.31       0.00      43.31       35.98     4.29   0.820
  58                        52.80       0.00       0.95       9.33      40.42       0.00      40.42        6.66     0.79   0.766
  59                        52.80       0.00       0.93      10.37      39.63       0.00      39.63        5.05     0.60   0.751
  60                        52.80       0.00       0.35      36.90      14.97       0.00      14.97        4.29     0.50   0.284
  61                        52.80       0.00       0.54      28.07      23.07       0.00      23.07        8.69     1.03   0.437
  62                        52.80       0.00       0.75      18.37      31.95       0.00      31.95       37.44     4.45   0.605
  63                        52.80       0.00       1.02       5.82      43.22       0.00      43.22       83.58     9.97   0.819
  64                        52.80       0.00       0.76      17.75      32.68       0.00      32.68        7.02     0.83   0.619
  65                        52.80       0.00       1.04       5.15      43.88       0.00      43.88       29.51     3.52   0.831
  66                        52.80       0.00       0.82      15.27      34.77       0.00      34.77        8.86     1.05   0.658
  67                        52.80       0.00       0.77      17.73      32.76       0.00      32.76       10.59     1.25   0.620
  68                        52.80       0.00       0.92      10.73      39.19       0.00      39.19        4.36     0.52   0.742
  69                        52.80       0.00       0.54      28.10      23.23       0.00      23.23        7.43     0.87   0.440
  70                        52.80       0.00       0.76      18.05      32.32       0.00      32.32       26.59     3.15   0.612
  71                        52.80       0.00       0.94       9.87      39.97       0.00      39.97        4.90     0.58   0.757
  72                        52.80       0.00       0.99       7.54      42.13       0.00      42.13        5.25     0.62   0.798
  73                        52.80       0.00       0.89      11.79      38.28       0.00      38.28        6.36     0.75   0.725
  74                        52.80       0.00       0.85      13.71      36.47       0.00      36.47        7.85     0.93   0.691
  75                        52.80       0.00       0.95       9.35      40.47       0.00      40.47        5.83     0.69   0.766
  76                        52.80       0.00       1.00       7.09      42.60       0.00      42.60        4.13     0.49   0.807
  77                        52.80       0.00       1.06       4.06      45.31       0.00      45.31        4.90     0.58   0.858
  78                        52.80       0.00       1.03       5.78      43.69       0.00      43.69        4.80     0.57   0.827
  79                        52.80       0.00       0.45      32.17      19.37       0.00      19.37       20.54     2.41   0.367
  80                        52.80       0.00       0.85      13.93      36.04       0.00      36.04       22.56     2.68   0.683
  81                        52.80       0.00       0.86      13.32      36.58       0.00      36.58       15.94     1.90   0.693
  82                        52.80       0.00       0.82      14.99      35.05       0.00      35.05       32.13     3.82   0.664
  83                        52.80       0.00       1.03       5.54      44.00       0.00      44.00        5.38     0.64   0.833
  84                        52.80       0.00       0.97       8.20      41.45       0.00      41.45        4.95     0.59   0.785
  85                        52.80       0.00       1.14       0.40      48.80       0.00      48.80        4.54     0.54   0.924
  86                        52.80       0.00       1.05       4.46      44.95       0.00      44.95        6.62     0.79   0.851
  87                        52.80       0.00       1.13       1.13      47.93       0.00      47.93        6.30     0.75   0.908
  88                        52.80       0.00       1.01       6.58      43.04       0.00      43.04        4.12     0.49   0.815
  89                        52.80       0.00       1.06       4.24      45.19       0.00      45.19        8.70     1.03   0.856
  90                        52.80       0.00       1.15       0.01      49.25       0.00      49.25        0.57     0.07   0.933
  91                        52.80       0.00       0.96       8.85      40.59       0.00      40.59        8.85     1.05   0.769
  92                        52.80       0.00       1.06       4.11      45.27       0.00      45.27        5.66     0.67   0.857
  93                        52.80       0.00       0.87      13.12      36.89       0.00      36.89       18.88     2.24   0.699
  94                        52.80       0.00       0.78      17.10      33.45       0.00      33.45        2.34     0.28   0.634
  95                        52.80       0.00       1.15       0.06      49.10       0.00      49.10        1.07     0.13   0.930
  96                        52.80       0.00       0.93      10.22      39.68       0.00      39.68        4.85     0.57   0.752
  97                        52.80       0.00       1.13       1.12      48.06       0.00      48.06        4.77     0.57   0.910
  98                        52.80       0.00       0.93       9.97      39.93       0.00      39.93        4.92     0.58   0.756
  99                        52.80       0.00       0.46      31.59      19.94       0.00      19.94        7.40     0.87   0.378
  100                       52.80       0.00       0.51      29.22      22.16       0.00      22.16        5.69     0.67   0.420
  101                       52.80       0.00       0.53      28.64      22.64       0.00      22.64       11.09     1.31   0.429
  102                       52.80       0.00       0.86      13.43      36.66       0.00      36.66        8.94     1.06   0.694
  103                       52.80       0.00       0.29      39.64      12.44       0.00      12.44        4.52     0.53   0.236
  104                       52.80       0.00       0.19      43.90       8.41       0.00       8.41        8.15     0.95   0.159
  105                       52.80       0.00       0.95       9.38      40.49       0.00      40.49        5.30     0.63   0.767
  106                       52.80       0.00       0.51      29.28      22.07       0.00      22.07        5.39     0.63   0.418
  
  
  ******************
  Node Depth Summary
  ******************
  
  ---------------------------------------------------------------------------------
                                 Average  Maximum  Maximum  Time of Max    Reported
                                   Depth    Depth      HGL   Occurrence   Max Depth
  Node                 Type       Meters   Meters   Meters  days hr:min      Meters
  ---------------------------------------------------------------------------------
  jd1                  JUNCTION     0.14     0.25   273.25     0  04:00        0.25
  jd2                  JUNCTION     0.99     3.00   270.00     0  03:10        3.00
  jd3                  JUNCTION     2.77     3.00   266.00     0  02:27        3.00
  jd4                  JUNCTION     1.95     3.00   270.00     0  02:50        3.00
  jd5                  JUNCTION     0.10     0.18   274.18     0  04:00        0.18
  jd6                  JUNCTION     0.13     0.24   275.24     0  04:00        0.24
  jd7                  JUNCTION     0.39     0.63   264.73     0  04:00        0.63
  jd8                  JUNCTION     2.29     3.00   267.00     0  02:30        3.00
  jd9                  JUNCTION     2.05     3.00   268.00     0  02:37        3.00
  jd10                 JUNCTION     2.79     3.00   273.00     0  02:22        3.00
  jd11                 JUNCTION     0.11     0.21   282.21     0  04:00        0.21
  jd12                 JUNCTION     2.80     3.00   272.00     0  02:19        3.00
  jd13                 JUNCTION     0.14     0.28   289.28     0  04:00        0.28
  jd14                 JUNCTION     0.80     3.00   283.00     0  03:09        3.00
  jd15                 JUNCTION     0.33     0.68   278.68     0  04:00        0.68
  jd16                 JUNCTION     0.37     0.78   274.78     0  04:00        0.78
  jd17                 JUNCTION     2.60     3.00   278.80     0  02:34        3.00
  jd18                 JUNCTION     0.91     3.00   282.00     0  03:13        3.00
  jd19                 JUNCTION     1.69     3.00   270.00     0  02:45        3.00
  jd20                 JUNCTION     0.24     0.45   273.45     0  04:00        0.45
  jd21                 JUNCTION     2.77     3.00   273.00     0  02:26        3.00
  jd22                 JUNCTION     2.03     3.00   275.00     0  02:31        3.00
  jd23                 JUNCTION     0.64     3.00   281.00     0  03:17        3.00
  jd24                 JUNCTION     0.16     0.32   285.32     0  04:00        0.32
  jd25                 JUNCTION     0.55     3.00   282.00     0  03:21        2.62
  jd26                 JUNCTION     0.87     3.00   288.00     0  03:09        3.00
  jd27                 JUNCTION     0.57     3.00   294.00     0  03:20        3.00
  jd28                 JUNCTION     2.81     3.00   290.00     0  02:15        3.00
  jd29                 JUNCTION     0.11     0.22   299.22     0  04:00        0.22
  jd30                 JUNCTION     0.15     0.27   290.27     0  04:00        0.27
  jd31                 JUNCTION     1.20     3.00   275.00     0  02:37        2.28
  jd32                 JUNCTION     2.80     3.00   275.00     0  02:19        3.00
  jd33                 JUNCTION     0.23     0.46   289.46     0  04:00        0.46
  jd34                 JUNCTION     0.66     3.00   297.00     0  03:10        3.00
  jd35                 JUNCTION     2.83     3.00   292.00     0  02:07        3.00
  jd36                 JUNCTION     1.15     3.00   302.00     0  03:07        3.00
  jd37                 JUNCTION     1.14     3.00   306.00     0  03:06        3.00
  jd38                 JUNCTION     0.71     3.00   300.00     0  03:18        2.78
  jd39                 JUNCTION     2.77     3.00   297.00     0  02:27        3.00
  jd40                 JUNCTION     1.56     3.00   302.00     0  03:01        3.00
  jd41                 JUNCTION     2.72     3.00   296.00     0  02:44        3.00
  jd42                 JUNCTION     0.24     0.50   305.50     0  04:00        0.50
  jd43                 JUNCTION     1.31     3.00   300.00     0  03:03        3.00
  jd44                 JUNCTION     1.44     3.00   286.00     0  03:03        3.00
  jd45                 JUNCTION     2.79     3.00   282.00     0  02:23        3.00
  jd46                 JUNCTION     0.63     3.00   278.00     0  03:25        3.00
  jd47                 JUNCTION     0.18     0.34   315.34     0  04:00        0.34
  jd48                 JUNCTION     0.13     0.25   325.25     0  04:00        0.25
  jd49                 JUNCTION     0.57     3.00   292.00     0  03:27        3.00
  jd50                 JUNCTION     2.82     3.00   278.00     0  02:13        3.00
  jd51                 JUNCTION     2.70     3.00   313.00     0  02:46        3.00
  jd52                 JUNCTION     0.88     3.00   326.00     0  03:11        2.04
  jd53                 JUNCTION     1.15     3.00   325.00     0  03:10        3.00
  jd54                 JUNCTION     0.35     0.78   326.78     0  04:00        0.78
  jd55                 JUNCTION     1.85     3.00   325.00     0  03:11        3.00
  jd56                 JUNCTION     0.23     0.49   327.49     0  04:00        0.49
  jd59                 JUNCTION     2.68     3.00   320.80     0  02:50        3.00
  jd60                 JUNCTION     2.80     3.00   319.00     0  02:18        3.00
  jd61                 JUNCTION     0.17     0.34   329.34     0  04:00        0.34
  jd62                 JUNCTION     0.07     0.14   335.14     0  04:00        0.14
  jd63                 JUNCTION     0.08     0.15   324.15     0  04:00        0.15
  jd64                 JUNCTION     2.54     3.00   321.00     0  02:50        3.00
  jd65                 JUNCTION     2.34     3.00   307.00     0  02:36        3.00
  jd66                 JUNCTION     2.79     3.00   304.00     0  02:23        3.00
  jd69                 JUNCTION     0.28     0.59   333.59     0  04:00        0.59
  jd79                 JUNCTION     2.80     3.00   274.00     0  02:16        3.00
  jd80                 JUNCTION     2.69     3.00   279.00     0  02:26        3.00
  jd81                 JUNCTION     0.18     0.36   288.36     0  04:00        0.36
  jd83                 JUNCTION     2.83     3.00   323.00     0  02:06        3.00
  jd84                 JUNCTION     0.71     3.00   326.00     0  03:07        3.00
  jd85                 JUNCTION     2.79     3.00   324.00     0  02:21        3.00
  jd87                 JUNCTION     2.79     3.00   322.00     0  02:20        3.00
  jd89                 JUNCTION     0.20     0.44   324.44     0  04:00        0.44
  jd90                 JUNCTION     0.17     0.33   328.33     0  04:00        0.33
  jd92                 JUNCTION     0.18     0.43   326.43     0  04:00        0.43
  jd93                 JUNCTION     1.16     3.00   327.00     0  03:08        3.00
  jd94                 JUNCTION     0.67     3.00   329.20     0  03:13        2.31
  jd95                 JUNCTION     0.76     3.00   330.00     0  03:13        2.85
  jd96                 JUNCTION     2.81     3.00   308.00     0  02:16        3.00
  jd97                 JUNCTION     0.79     3.00   330.20     0  03:11        3.00
  jd98                 JUNCTION     0.23     0.52   329.52     0  04:00        0.52
  jd99                 JUNCTION     2.78     3.00   327.00     0  02:23        3.00
  jd101                JUNCTION     0.13     0.24   321.24     0  04:00        0.24
  jd102                JUNCTION     0.63     3.00   327.00     0  03:14        3.00
  jd103                JUNCTION     0.13     0.26   318.26     0  04:00        0.26
  jd106                JUNCTION     2.74     3.00   287.00     0  02:36        3.00
  jd107                JUNCTION     0.25     0.48   332.48     0  04:00        0.48
  jd108                JUNCTION     1.22     1.64   327.64     0  04:00        1.64
  jd109                JUNCTION     0.20     0.41   343.41     0  04:00        0.41
  jd110                JUNCTION     2.80     3.00   327.00     0  02:21        3.00
  jd111                JUNCTION     0.09     0.16   344.16     0  04:00        0.16
  jd112                JUNCTION     0.11     0.21   334.21     0  04:00        0.21
  jd113                JUNCTION     0.12     0.23   348.23     0  04:00        0.23
  jd114                JUNCTION     2.79     3.00   317.00     0  02:22        3.00
  jd117                JUNCTION     1.49     3.00   319.00     0  02:27        3.00
  jd118                JUNCTION     0.11     0.21   330.21     0  04:00        0.21
  jd120                JUNCTION     0.21     0.50   327.50     0  04:00        0.50
  jd121                JUNCTION     0.20     0.42   320.42     0  04:00        0.42
  jd122                JUNCTION     2.77     3.00   276.00     0  02:25        3.00
  jd123                JUNCTION     2.76     3.00   276.20     0  02:28        3.00
  jd124                JUNCTION     2.86     3.00   271.00     0  01:51        3.00
  jd125                JUNCTION     1.83     3.00   278.00     0  02:47        3.00
  jd126                JUNCTION     2.83     3.00   275.00     0  02:06        3.00
  jd135                JUNCTION     0.17     0.38   289.38     0  04:00        0.38
  jd136                JUNCTION     0.33     0.71   341.71     0  04:00        0.71
  psk1                 OUTFALL      0.11     0.21   279.21     0  04:00        0.21
  psk2                 OUTFALL      0.15     0.27   270.27     0  04:00        0.27
  psk3                 OUTFALL      0.37     0.78   271.78     0  04:00        0.78
  psk4                 OUTFALL      0.00     0.00   280.00     0  00:00        0.00
  psk5                 OUTFALL      0.14     0.25   263.25     0  04:00        0.25
  psk6                 OUTFALL      0.10     0.18   259.18     0  04:00        0.18
  psk7                 OUTFALL      0.39     0.62   262.62     0  04:00        0.62
  psk8                 OUTFALL      0.00     0.00   317.00     0  00:00        0.00
  
  
  *******************
  Node Inflow Summary
  *******************
  
  -------------------------------------------------------------------------------------------------
                                  Maximum  Maximum                  Lateral       Total        Flow
                                  Lateral    Total  Time of Max      Inflow      Inflow     Balance
                                   Inflow   Inflow   Occurrence      Volume      Volume       Error
  Node                 Type           CMS      CMS  days hr:min    10^6 ltr    10^6 ltr     Percent
  -------------------------------------------------------------------------------------------------
  jd1                  JUNCTION     1.014    1.356     0  04:00        8.59        13.1       0.145
  jd2                  JUNCTION     1.574    2.049     0  04:00        13.2        17.8       0.231
  jd3                  JUNCTION     1.887    3.605     0  04:00        15.9        42.5       0.942
  jd4                  JUNCTION     2.272    2.515     0  04:00          19        21.2       0.284
  jd5                  JUNCTION     0.663    1.043     0  04:00        5.58        9.37       0.050
  jd6                  JUNCTION     0.766    0.766     0  04:00        6.44        6.44       0.074
  jd7                  JUNCTION     0.386    2.989     0  04:00        3.27        38.3       0.168
  jd8                  JUNCTION     0.537    1.483     0  04:00        4.54        24.9       0.916
  jd9                  JUNCTION     0.412    1.480     0  04:00        3.49        23.7       0.245
  jd10                 JUNCTION     1.099    1.387     0  04:00        9.26        11.7       0.861
  jd11                 JUNCTION     1.623    1.623     0  04:00        13.7        13.7       0.082
  jd12                 JUNCTION     1.222    2.713     0  04:00        10.3        22.5       0.614
  jd13                 JUNCTION     2.215    2.215     0  04:00        18.6        18.6       0.077
  jd14                 JUNCTION     2.599    2.945     0  04:00        21.8        24.6       0.149
  jd15                 JUNCTION     1.069    2.033     0  04:00        9.01        19.1       0.430
  jd16                 JUNCTION     1.149    4.428     0  04:00         9.7        37.6       0.162
  jd17                 JUNCTION     2.404    4.715     0  04:00        20.2        47.4       1.659
  jd18                 JUNCTION     1.905    2.791     0  04:00        16.1        23.4       0.208
  jd19                 JUNCTION     1.769    3.132     0  04:00        14.9        28.7       0.173
  jd20                 JUNCTION     1.470    1.722     0  04:00        12.4        18.5       0.317
  jd21                 JUNCTION     0.682    3.574     0  04:00        5.73        40.4       0.839
  jd22                 JUNCTION     1.201    2.198     0  04:00        10.1          21       0.395
  jd23                 JUNCTION     1.187    3.543     0  04:00        9.99        28.7       0.071
  jd24                 JUNCTION     1.951    1.951     0  04:00        16.4        16.4       0.084
  jd25                 JUNCTION     1.534    2.241     0  04:00        12.9        18.7       0.166
  jd26                 JUNCTION     2.233    3.449     0  04:00        18.8        30.5       0.136
  jd27                 JUNCTION     2.299    2.922     0  04:00        19.3        29.3       0.174
  jd28                 JUNCTION     3.137    4.044     0  04:00        26.3        35.5       0.379
  jd29                 JUNCTION     1.257    1.257     0  04:00        10.6        10.6       0.045
  jd30                 JUNCTION     1.308    3.287     0  04:00          11        30.7       0.098
  jd31                 JUNCTION     0.874    1.711     0  04:00        7.34        15.5       2.970
  jd32                 JUNCTION     1.773    5.106     0  04:00        14.9        56.5       0.437
  jd33                 JUNCTION     1.746    2.805     0  04:00        14.7        24.4       0.089
  jd34                 JUNCTION     2.159    2.159     0  04:00        18.2        18.2       0.059
  jd35                 JUNCTION     1.970    4.151     0  04:00        16.6        47.8       0.275
  jd36                 JUNCTION     3.350    4.410     0  04:00        28.1        42.2       0.180
  jd37                 JUNCTION     3.521    3.521     0  04:00        29.6        29.6       0.140
  jd38                 JUNCTION     3.234    4.056     0  04:00        27.2        40.8       0.263
  jd39                 JUNCTION     2.240    5.676     0  04:00        18.9        65.7       0.775
  jd40                 JUNCTION     3.818    6.009     0  04:00        32.1        66.5       0.291
  jd41                 JUNCTION     2.682    8.346     0  04:00        22.5        82.4       2.640
  jd42                 JUNCTION     3.520    3.858     0  04:00        29.5        32.4       0.202
  jd43                 JUNCTION     3.945    6.276     0  04:00        33.4        56.7       0.271
  jd44                 JUNCTION     5.284    8.161     0  04:00        44.5        90.1       0.251
  jd45                 JUNCTION     2.146    4.371     0  04:00          18        56.1       0.571
  jd46                 JUNCTION     0.979    0.979     0  04:00         8.2         8.2       0.622
  jd47                 JUNCTION     3.153    3.153     0  04:00        26.6        26.6       0.063
  jd48                 JUNCTION     0.872    0.872     0  04:00        7.43        7.43       0.064
  jd49                 JUNCTION     4.288    4.288     0  04:00          36          36       0.154
  jd50                 JUNCTION     4.445    8.376     0  04:00        37.4        92.4       0.466
  jd51                 JUNCTION     0.928    4.234     0  04:00        7.84          36       3.947
  jd52                 JUNCTION     1.896    5.416     0  03:11        15.9        45.5       0.253
  jd53                 JUNCTION     1.054    4.008     0  04:00        8.84        41.3       0.125
  jd54                 JUNCTION     0.566    2.813     0  04:00        4.77        23.8       0.161
  jd55                 JUNCTION     1.032    4.460     0  04:00         8.7        31.9       2.554
  jd56                 JUNCTION     0.627    1.834     0  04:00        5.29        15.5       0.118
  jd59                 JUNCTION     0.622    3.072     0  04:00        5.24        25.6       3.114
  jd60                 JUNCTION     1.114    2.363     0  04:00        9.39          20       0.648
  jd61                 JUNCTION     1.251    1.406     0  04:00        10.6        11.9       0.099
  jd62                 JUNCTION     0.503    0.503     0  04:00        4.29        4.29       0.024
  jd63                 JUNCTION     0.691    0.691     0  04:00        5.83        5.83       0.057
  jd64                 JUNCTION     0.582    1.436     0  04:00         4.9        12.1       3.186
  jd65                 JUNCTION     9.968    9.968     0  04:00        83.5        83.5       0.115
  jd66                 JUNCTION     1.306    3.786     0  04:00        11.1        32.2       0.986
  jd69                 JUNCTION     2.413    2.480     0  04:00        20.5        21.1       0.117
  jd79                 JUNCTION     2.350    3.266     0  04:00        19.8        32.6       0.535
  jd80                 JUNCTION     2.611    3.218     0  04:00          22        28.7       0.531
  jd81                 JUNCTION     1.984    1.984     0  04:00        16.7        16.7       0.035
  jd83                 JUNCTION     2.065    2.644     0  04:00        17.5        22.8       0.376
  jd84                 JUNCTION     2.625    2.625     0  04:00        22.3        22.3       0.081
  jd85                 JUNCTION     0.596    0.975     0  04:00        5.04        8.28       1.029
  jd87                 JUNCTION     0.488    1.179     0  04:00        4.12        9.96       0.743
  jd89                 JUNCTION     0.570    0.570     0  04:00         4.8         4.8       0.139
  jd90                 JUNCTION     0.581    0.581     0  04:00         4.9         4.9       0.074
  jd92                 JUNCTION     0.488    0.488     0  04:00        4.12        4.12       0.064
  jd93                 JUNCTION     1.053    2.019     0  04:00        8.85        18.4       0.183
  jd94                 JUNCTION     0.067    1.042     0  03:12       0.565         9.6       0.033
  jd95                 JUNCTION     0.127    0.980     0  03:12        1.07        9.06       0.275
  jd96                 JUNCTION     0.952    1.270     0  04:00        8.14        10.8       0.882
  jd97                 JUNCTION     1.028    1.028     0  04:00        8.69        8.69       0.060
  jd98                 JUNCTION     0.574    0.574     0  04:00        4.84        4.84       0.070
  jd99                 JUNCTION     0.276    0.587     0  04:00        2.34        6.53       0.863
  jd101                JUNCTION     0.752    1.449     0  04:00        6.36        12.5       0.051
  jd102                JUNCTION     0.749    0.749     0  04:00         6.3         6.3       0.115
  jd103                JUNCTION     0.516    0.516     0  04:00        4.35        4.35       0.034
  jd106                JUNCTION     0.404    2.301     0  04:00        3.41        19.7       1.989
  jd107                JUNCTION     0.582    1.916     0  04:00        4.92        16.2       0.147
  jd108                JUNCTION     0.633    0.633     0  04:00        5.38         5.4       1.221
  jd109                JUNCTION     1.059    1.059     0  04:00        8.93        8.93       0.034
  jd110                JUNCTION     0.804    1.197     0  04:00         6.9        10.3       1.481
  jd111                JUNCTION     0.667    0.667     0  04:00        5.68        5.68       0.050
  jd112                JUNCTION     0.786    2.182     0  04:00        6.62        18.5       0.052
  jd113                JUNCTION     0.528    0.528     0  04:00        4.52        4.52      -0.001
  jd114                JUNCTION     0.637    4.353     0  04:00        5.37        56.2       0.564
  jd117                JUNCTION     0.587    1.916     0  04:00        4.94        16.3       0.956
  jd118                JUNCTION     0.538    0.538     0  04:00        4.53        4.53       0.008
  jd120                JUNCTION     0.671    0.671     0  04:00        5.65        5.65       0.060
  jd121                JUNCTION     0.830    0.830     0  04:00        7.01        7.01       0.086
  jd122                JUNCTION     1.970    6.350     0  04:00        16.6        63.8       0.880
  jd123                JUNCTION     2.025    4.514     0  04:00        17.1        58.5       1.189
  jd124                JUNCTION     2.924    3.997     0  04:00        24.6        48.6       0.124
  jd125                JUNCTION     2.844    4.519     0  04:00        23.8        58.2       0.130
  jd126                JUNCTION     4.131    4.993     0  04:00        34.6          46       0.222
  jd135                JUNCTION     1.048    1.048     0  04:00        8.84        8.84       0.050
  jd136                JUNCTION     0.869    1.397     0  04:00         7.4        11.9       0.131
  psk1                 OUTFALL      0.000    1.060     0  04:00           0        8.88       0.000
  psk2                 OUTFALL      0.000    2.513     0  04:00           0          23       0.000
  psk3                 OUTFALL      0.000    4.427     0  04:00           0        37.6       0.000
  psk4                 OUTFALL      0.000    0.000     0  00:00           0           0       0.000 ltr
  psk5                 OUTFALL      0.000    0.881     0  04:00           0        8.46       0.000
  psk6                 OUTFALL      0.000    0.799     0  04:00           0        7.18       0.000
  psk7                 OUTFALL      0.000    2.989     0  04:00           0        38.3       0.000
  psk8                 OUTFALL      0.000    0.000     0  00:00           0           0       0.000 ltr
  
  
  **********************
  Node Surcharge Summary
  **********************
  
  Surcharging occurs when water rises above the top of the highest conduit.
  ---------------------------------------------------------------------
                                               Max. Height   Min. Depth
                                   Hours       Above Crown    Below Rim
  Node                 Type      Surcharged         Meters       Meters
  ---------------------------------------------------------------------
  jd2                  JUNCTION        1.90          2.200        0.000
  jd3                  JUNCTION        7.54          2.200        0.000
  jd4                  JUNCTION        4.52          2.200        0.000
  jd8                  JUNCTION        7.28          2.200        0.000
  jd9                  JUNCTION        5.17          2.200        0.000
  jd10                 JUNCTION        7.63          2.400        0.000
  jd12                 JUNCTION        7.67          2.400        0.000
  jd14                 JUNCTION        1.37          2.400        0.000
  jd17                 JUNCTION        7.42          2.200        0.000
  jd18                 JUNCTION        1.82          2.000        0.000
  jd19                 JUNCTION        4.05          2.200        0.000
  jd21                 JUNCTION        7.56          2.200        0.000
  jd22                 JUNCTION        7.48          2.400        0.000
  jd23                 JUNCTION        0.94          2.000        0.000
  jd25                 JUNCTION        0.74          2.000        0.000
  jd26                 JUNCTION        1.65          2.400        0.000
  jd27                 JUNCTION        0.79          2.400        0.000
  jd28                 JUNCTION        7.75          2.400        0.000
  jd31                 JUNCTION        7.38          2.200        0.000
  jd32                 JUNCTION        7.68          2.200        0.000
  jd34                 JUNCTION        0.97          2.400        0.000
  jd35                 JUNCTION        7.88          2.400        0.000
  jd36                 JUNCTION        2.01          2.400        0.000
  jd37                 JUNCTION        1.98          2.400        0.000
  jd38                 JUNCTION        0.88          2.000        0.000
  jd39                 JUNCTION        7.55          2.000        0.000
  jd40                 JUNCTION        3.16          2.200        0.000
  jd41                 JUNCTION        7.26          1.000        0.000
  jd43                 JUNCTION        2.12          2.200        0.000
  jd44                 JUNCTION        2.75          2.000        0.000
  jd45                 JUNCTION        7.61          2.000        0.000
  jd46                 JUNCTION        0.80          2.200        0.000
  jd49                 JUNCTION        0.64          2.200        0.000
  jd50                 JUNCTION        7.78          2.200        0.000
  jd51                 JUNCTION        7.22          1.350        0.000
  jd52                 JUNCTION        1.90          1.500        0.000
  jd53                 JUNCTION        1.98          1.800        0.000
  jd55                 JUNCTION        4.01          1.500        0.000
  jd59                 JUNCTION        7.17          1.500        0.000
  jd60                 JUNCTION        7.69          2.400        0.000
  jd64                 JUNCTION        7.18          1.800        0.000
  jd65                 JUNCTION        5.94          2.400        0.000
  jd66                 JUNCTION        7.61          2.200        0.000
  jd79                 JUNCTION        7.72          2.400        0.000
  jd80                 JUNCTION        7.56          2.400        0.000
  jd83                 JUNCTION        7.90          2.400        0.000
  jd84                 JUNCTION        1.05          2.400        0.000
  jd85                 JUNCTION        7.65          2.400        0.000
  jd87                 JUNCTION        7.66          2.400        0.000
  jd93                 JUNCTION        2.05          2.200        0.000
  jd94                 JUNCTION        1.54          2.200        0.000
  jd95                 JUNCTION        1.21          2.200        0.000
  jd96                 JUNCTION        7.73          2.200        0.000
  jd97                 JUNCTION        1.18          2.200        0.000
  jd99                 JUNCTION        7.61          2.400        0.000
  jd102                JUNCTION        0.89          2.400        0.000
  jd106                JUNCTION        7.40          2.000        0.000
  jd108                JUNCTION        7.68          0.640        1.360
  jd110                JUNCTION        7.65          2.000        0.000
  jd114                JUNCTION        7.62          2.000        0.000
  jd117                JUNCTION        7.55          2.200        0.000
  jd122                JUNCTION        7.58          2.200        0.000
  jd123                JUNCTION        7.53          2.200        0.000
  jd124                JUNCTION        8.15          2.400        0.000
  jd125                JUNCTION        4.54          2.200        0.000
  jd126                JUNCTION        7.90          2.400        0.000
  
  
  *********************
  Node Flooding Summary
  *********************
  
  Flooding refers to all water that overflows a node, whether it ponds or not.
  --------------------------------------------------------------------------
                                                             Total   Maximum
                                 Maximum   Time of Max       Flood    Ponded
                        Hours       Rate    Occurrence      Volume     Depth
  Node                 Flooded       CMS   days hr:min    10^6 ltr    Meters
  --------------------------------------------------------------------------
  jd2                     1.11     0.841      0  04:00       2.428     0.000
  jd3                     7.54     3.605      0  04:00      42.096     0.000
  jd4                     4.00     2.005      0  04:00       9.837     0.000
  jd8                     3.48     0.372      0  04:00       2.067     0.000
  jd9                     3.32     0.534      0  04:00       3.356     0.000
  jd10                    7.63     1.387      0  04:00      11.647     0.000
  jd12                    7.67     2.713      0  04:00      22.354     0.000
  jd14                    1.02     1.118      0  04:00       3.126     0.000
  jd17                    5.12     3.886      0  04:00      25.202     0.000
  jd18                    1.01     1.267      0  04:00       3.738     0.000
  jd19                    2.08     2.065      0  04:00       8.365     0.000
  jd21                    7.39     3.574      0  04:00      39.756     0.000
  jd22                    2.11     1.374      0  04:00       5.964     0.000
  jd23                    0.69     0.600      0  03:17       1.150     0.000
  jd25                    0.01     0.650      0  03:21       0.009     0.000
  jd26                    1.15     1.553      0  04:00       4.819     0.000
  jd27                    0.41     0.328      0  03:20       0.047     0.000
  jd28                    7.75     4.044      0  04:00      35.403     0.000
  jd31                    0.01     0.809      0  02:37       0.008     0.000
  jd32                    7.68     5.106      0  04:00      56.208     0.000
  jd34                    0.85     0.353      0  04:00       0.897     0.000
  jd35                    7.88     4.151      0  04:00      47.720     0.000
  jd36                    1.92     2.353      0  04:00       8.604     0.000
  jd37                    1.91     2.159      0  04:00       7.307     0.000
  jd38                    0.01     0.569      0  03:18       0.007     0.000
  jd39                    7.55     5.676      0  04:00      65.210     0.000
  jd40                    2.28     3.448      0  04:00      17.097     0.000
  jd41                    7.26     8.346      0  04:00      80.293     0.000
  jd43                    2.08     4.445      0  04:00      20.313     0.000
  jd44                    2.05     4.260      0  04:00      17.297     0.000
  jd45                    7.61     4.371      0  04:00      55.831     0.000
  jd46                    0.63     0.237      0  03:25       0.247     0.000
  jd49                    0.59     0.419      0  03:27       0.662     0.000
  jd50                    7.78     8.376      0  04:00      91.959     0.000
  jd51                    7.22     4.234      0  04:00      34.619     0.000
  jd52                    0.02     2.917      0  03:11       0.082     0.000
  jd53                    1.06     1.706      0  04:00       5.186     0.000
  jd55                    1.88     4.460      0  04:00      17.451     0.000
  jd59                    7.16     3.072      0  04:00      24.804     0.000
  jd60                    7.69     2.363      0  04:00      19.861     0.000
  jd64                    0.02     0.553      0  02:50       0.022     0.000
  jd65                    5.62     8.874      0  04:00      54.291     0.000
  jd66                    7.61     3.786      0  04:00      31.841     0.000
  jd79                    7.39     3.014      0  04:00      26.361     0.000
  jd80                    6.88     3.061      0  04:00      23.270     0.000
  jd83                    7.90     2.644      0  04:00      22.695     0.000
  jd84                    0.95     0.785      0  04:00       2.338     0.000
  jd85                    7.65     0.975      0  04:00       8.195     0.000
  jd87                    7.66     1.179      0  04:00       9.892     0.000
  jd93                    1.08     0.836      0  04:00       2.548     0.000
  jd94                    0.01     0.717      0  03:13       0.013     0.000
  jd95                    0.01     0.042      0  03:13       0.001     0.000
  jd96                    7.73     1.270      0  04:00      10.726     0.000
  jd97                    0.85     0.257      0  04:00       0.689     0.000
  jd99                    7.61     0.587      0  04:00       6.472     0.000
  jd102                   0.68     0.082      0  03:14       0.099     0.000
  jd106                   7.40     2.301      0  04:00      19.350     0.000
  jd110                   7.65     1.197      0  04:00      10.105     0.000
  jd114                   7.56     4.353      0  04:00      55.792     0.000
  jd117                   0.95     0.535      0  02:27       1.409     0.000
  jd122                   7.54     6.350      0  04:00      63.100     0.000
  jd123                   7.53     4.200      0  04:00      49.356     0.000
  jd124                   8.14     3.997      0  04:00      48.543     0.000
  jd125                   2.14     2.133      0  04:00       9.230     0.000
  jd126                   7.90     4.993      0  04:00      45.860     0.000
  
  
  ***********************
  Outfall Loading Summary
  ***********************
  
  -----------------------------------------------------------
                         Flow       Avg       Max       Total
                         Freq      Flow      Flow      Volume
  Outfall Node           Pcnt       CMS       CMS    10^6 ltr
  -----------------------------------------------------------
  psk1                  97.49     0.371     1.060       8.878
  psk2                  97.47     0.959     2.513      22.969
  psk3                  97.57     1.571     4.427      37.582
  psk4                   0.00     0.000     0.000       0.000
  psk5                  97.55     0.347     0.881       8.465
  psk6                  97.46     0.297     0.799       7.182
  psk7                  97.55     1.489     2.989      38.261
  psk8                   0.00     0.000     0.000       0.000
  -----------------------------------------------------------
  System                73.14     5.033     0.000     123.337
  
  
  ********************
  Link Flow Summary
  ********************
  
  -----------------------------------------------------------------------------
                                 Maximum  Time of Max   Maximum    Max/    Max/
                                  |Flow|   Occurrence   |Veloc|    Full    Full
  Link                 Type          CMS  days hr:min     m/sec    Flow   Depth
  -----------------------------------------------------------------------------
  GQ1                  CONDUIT     0.355     0  03:14      1.93    0.93    0.71
  GQ2                  CONDUIT     1.690     0  04:00      2.80    0.80    0.73
  GQ3                  CONDUIT     1.060     0  04:00      7.28    0.04    0.14
  GQ4                  CONDUIT     0.510     0  03:22      1.80    1.00    1.00
  GQ5                  CONDUIT     1.208     0  03:26      2.40    1.00    1.00
  GQ6                  CONDUIT     0.476     0  04:00      1.36    0.21    0.66
  GQ7                  CONDUIT     1.675     0  04:37      3.62    1.00    1.00
  GQ8                  CONDUIT     1.045     0  03:49      2.08    1.00    1.00
  GQ9                  CONDUIT     2.837     0  03:35      5.73    1.00    1.00
  GQ10                 CONDUIT     1.135     0  07:07      4.10    1.04    1.00
  GQ11                 CONDUIT     0.338     0  04:00      2.05    0.36    0.62
  GQ12                 CONDUIT     0.417     0  04:00      1.87    0.45    0.74
  GQ13                 CONDUIT     0.243     0  04:00      0.75    0.12    0.61
  GQ14                 CONDUIT     0.133     0  04:00      1.24    0.19    0.27
  GQ15                 CONDUIT     0.247     0  03:39      4.41    1.00    0.78
  GQ16                 CONDUIT     1.978     0  04:00      4.05    0.96    0.64
  GQ17                 CONDUIT     0.633     0  04:00      2.27    0.20    0.54
  GQ18                 CONDUIT     1.111     0  04:00      2.50    5.01    0.89
  GQ19                 CONDUIT     0.859     0  04:00      2.74    0.10    0.42
  GQ20                 CONDUIT     0.188     0  04:00      0.48    0.10    0.61
  GQ21                 CONDUIT     0.698     0  04:00      1.49    0.22    0.66
  GQ22                 CONDUIT     0.707     0  04:00      1.89    0.22    0.66
  GQ23                 CONDUIT     1.611     0  04:00      2.34    0.79    1.00
  GQ24                 CONDUIT     2.020     0  03:36      4.02    1.00    1.00
  GQ25                 CONDUIT     1.059     0  04:00      4.10    1.19    0.88
  GQ26                 CONDUIT     0.758     0  03:21      2.91    0.89    0.88
  GQ27                 CONDUIT     0.997     0  03:33      3.52    1.00    1.00
  GQ28                 CONDUIT     0.358     0  04:00      0.85    0.38    0.78
  GQ29                 CONDUIT     1.711     0  04:00      3.40    0.80    1.00
  GQ30                 CONDUIT     0.824     0  03:16      2.91    1.00    1.00
  GQ31                 CONDUIT     0.747     0  03:37      2.64    1.00    1.00
  GQ32                 CONDUIT     0.739     0  03:20      2.97    1.19    1.00
  GQ33                 CONDUIT     1.434     0  03:23      5.07    1.00    1.00
  GQ34                 CONDUIT     0.521     0  04:00      1.92    0.82    0.92
  GQ35                 CONDUIT     0.709     0  03:07      2.52    1.31    1.00
  GQ36                 CONDUIT     0.973     0  03:06      3.44    1.21    1.00
  GQ37                 CONDUIT     0.699     0  03:52      2.47    1.00    1.00
  GQ38                 CONDUIT     0.208     0  04:00      0.94    0.30    0.73
  GQ39                 CONDUIT     0.782     0  03:24      2.76    1.00    1.00
  GQ40                 CONDUIT     0.804     0  03:43      2.84    1.00    1.00
  GQ41                 CONDUIT     2.078     0  04:00      2.65    0.96    1.00
  GQ42                 CONDUIT     1.359     0  03:31      2.70    1.00    1.00
  GQ43                 CONDUIT     2.304     0  03:07      4.70    1.03    1.00
  GQ44                 CONDUIT     0.946     0  03:21      1.88    1.00    1.00
  GQ45                 CONDUIT     1.364     0  04:00      3.24    0.55    0.78
  GQ46                 CONDUIT     1.068     0  04:40      2.12    1.00    1.00
  GQ47                 CONDUIT     0.288     0  04:00      1.41    0.27    0.68
  GQ48                 CONDUIT     0.287     0  04:00      1.40    0.27    0.68
  GQ49                 CONDUIT     1.204     0  04:00      5.40    0.45    0.74
  GQ50                 CONDUIT     0.346     0  04:00      1.55    0.45    0.74
  GQ51                 CONDUIT     0.995     0  03:16      3.60    1.52    1.00
  GQ52                 CONDUIT     0.853     0  04:03      1.70    1.14    1.00
  GQ53                 CONDUIT     2.225     0  03:43      2.83    1.00    1.00
  GQ54                 CONDUIT     0.715     0  04:00      3.01    0.61    0.78
  GQ55                 CONDUIT     0.534     0  04:00      2.49    0.36    0.71
  GQ56                 CONDUIT     1.968     0  03:02      4.14    1.07    1.00
  GQ57                 CONDUIT     1.070     0  04:00      2.45    0.70    0.81
  GQ58                 CONDUIT     2.264     0  04:00      5.18    0.71    0.81
  GQ59                 CONDUIT     1.203     0  03:52      2.39    1.00    1.00
  GQ60                 CONDUIT     2.849     0  03:11      1.67    0.69    1.00
  GQ61                 CONDUIT     0.444     0  04:00      0.42    0.06    0.58
  GQ62                 CONDUIT     0.954     0  04:00      0.71    0.10    0.60
  GQ63                 CONDUIT     2.198     0  04:00      1.15    0.06    0.59
  GQ64                 CONDUIT     0.155     0  04:00      1.56    0.12    0.40
  GQ65                 CONDUIT     0.067     0  04:00      0.40    0.12    0.60
  GQ66                 CONDUIT     0.274     0  04:00      0.87    0.08    0.60
  GQ67                 CONDUIT     1.436     0  04:00      1.27    1.00    1.00
  GQ68                 CONDUIT     1.523     0  04:00      2.42    0.48    0.75
  GQ69                 CONDUIT     2.480     0  04:00      5.36    0.88    0.87
  GQ70                 CONDUIT     0.799     0  04:00      9.21    0.11    0.23
  GQ71                 CONDUIT     0.881     0  04:00      6.50    0.21    0.31
  GQ72                 CONDUIT     2.989     0  04:00      5.79    0.71    0.63
  GQ73                 CONDUIT     2.513     0  04:00     14.41    0.16    0.27
  GQ74                 CONDUIT     0.560     0  04:00      1.58    0.10    0.50
  GQ75                 CONDUIT     0.565     0  04:00      1.07    0.17    0.64
  GQ76                 CONDUIT     4.427     0  04:00      6.70    0.96    0.78
  GQ77                 CONDUIT     0.000     0  00:00      0.00    0.00    0.34
  GQ78                 CONDUIT     0.916     0  04:00      3.24    1.00    1.00
  GQ79                 CONDUIT     0.253     0  03:20      1.08    0.54    0.87
  GQ80                 CONDUIT     0.608     0  03:39      2.15    1.00    1.00
  GQ81                 CONDUIT     0.563     0  02:33      1.99    3.57    1.00
  GQ82                 CONDUIT     0.954     0  04:00      3.95    0.66    0.80
  GQ83                 CONDUIT     1.030     0  04:00      4.27    0.66    0.80
  GQ84                 CONDUIT     1.302     0  04:12      4.71    1.03    1.00
  GQ85                 CONDUIT     0.579     0  03:33      2.05    1.00    1.00
  GQ86                 CONDUIT     0.280     0  04:00      1.53    0.12    0.62
  GQ87                 CONDUIT     0.099     0  04:00      0.53    0.15    0.63
  GQ88                 CONDUIT     0.690     0  04:00      2.91    0.61    0.78
  GQ89                 CONDUIT     0.570     0  04:00      2.19    0.75    0.86
  GQ90                 CONDUIT     0.581     0  04:00      2.47    0.58    0.77
  GQ91                 CONDUIT     0.488     0  04:00      1.89    0.60    0.86
  GQ92                 CONDUIT     0.980     0  03:12      2.16    1.41    1.00
  GQ93                 CONDUIT     0.966     0  04:00      1.92    0.83    1.00
  GQ94                 CONDUIT     1.237     0  03:10      2.46    1.47    1.00
  GQ95                 CONDUIT     0.318     0  04:00      1.02    0.08    0.60
  GQ96                 CONDUIT     0.868     0  03:12      1.73    1.48    1.00
  GQ97                 CONDUIT     0.574     0  04:00      2.28    1.04    0.84
  GQ98                 CONDUIT     0.311     0  04:00      1.15    0.44    0.91
  GQ99                 CONDUIT     1.006     0  04:00      0.95    0.06    0.58
  GQ100                CONDUIT     0.698     0  04:00      3.31    1.20    0.70
  GQ101                CONDUIT     0.516     0  04:00      2.38    0.39    0.72
  GQ102                CONDUIT     2.060     0  04:00      4.86    0.63    0.79
  GQ103                CONDUIT     0.630     0  04:00      2.23    0.97    1.00
  GQ104                CONDUIT     1.389     0  03:19      5.01    1.01    1.00
  GQ105                CONDUIT     0.738     0  02:28      1.47    2.35    1.00
  GQ106                CONDUIT     0.546     0  04:00      2.36    0.55    0.76
  GQ107                CONDUIT     1.114     0  03:24      3.94    1.00    1.00
  GQ108                CONDUIT     0.829     0  03:37      1.65    1.00    1.00
  GQ109                CONDUIT     0.412     0  04:00      1.66    0.56    0.82
  GQ110                CONDUIT     0.697     0  04:00      1.39    0.10    0.61
  GQ111                CONDUIT     0.636     0  04:00      2.57    0.58    0.82
  GQ112                CONDUIT     1.916     0  04:00      3.43    0.34    0.53
  GQ113                CONDUIT     1.059     0  04:00      4.71    0.80    0.74
  GQ114                CONDUIT     0.633     0  04:00      1.01    0.26    0.75
  GQ115                CONDUIT     0.274     0  04:00      1.14    0.04    0.27
  GQ116                CONDUIT     0.393     0  04:00      0.83    0.05    0.58
  GQ117                CONDUIT     1.397     0  04:00      4.85    0.87    0.57
  GQ118                CONDUIT     0.528     0  04:00      2.21    0.18    0.59
  GQ119                CONDUIT     2.302     0  03:27      4.58    1.00    1.00
  GQ120                CONDUIT     0.000     0  00:00      0.00    0.00    0.50
  GQ121                CONDUIT     1.414     0  03:34      2.81    1.00    1.00
  GQ122                CONDUIT     0.791     0  04:00      2.38    0.14    0.63
  GQ123                CONDUIT     0.538     0  04:00      2.65    0.26    0.67
  GQ124                CONDUIT     0.331     0  04:00      1.19    0.14    0.61
  GQ125                CONDUIT     0.671     0  04:00      2.47    0.76    0.92
  GQ126                CONDUIT     0.830     0  04:00      3.24    0.79    0.85
  GQ127                CONDUIT     0.862     0  03:07      1.75    1.10    1.00
  GQ128                CONDUIT     2.813     0  04:00      2.82    0.61    0.82
  GQ129                CONDUIT     1.313     0  04:31      2.61    1.00    1.00
  GQ130                CONDUIT     1.073     0  03:29      3.79    1.00    1.00
  GQ131                CONDUIT     0.862     0  03:21      3.05    1.00    1.00
  
  
  ***************************
  Flow Classification Summary
  ***************************
  
  -------------------------------------------------------------------------------------
                      Adjusted    ---------- Fraction of Time in Flow Class ---------- 
                       /Actual         Up    Down  Sub   Sup   Up    Down  Norm  Inlet 
  Conduit               Length    Dry  Dry   Dry   Crit  Crit  Crit  Crit  Ltd   Ctrl  
  -------------------------------------------------------------------------------------
  GQ1                     1.00   0.02  0.00  0.00  0.19  0.78  0.00  0.00  0.00  0.00
  GQ2                     1.00   0.02  0.00  0.00  0.04  0.93  0.00  0.00  0.88  0.00
  GQ3                     1.00   0.02  0.00  0.00  0.00  0.97  0.00  0.00  0.25  0.00
  GQ4                     1.00   0.02  0.00  0.00  0.98  0.00  0.00  0.00  0.22  0.00
  GQ5                     1.00   0.02  0.00  0.00  0.98  0.00  0.00  0.00  0.67  0.00
  GQ6                     1.00   0.02  0.00  0.00  0.98  0.00  0.00  0.00  0.90  0.00
  GQ7                     1.00   0.02  0.00  0.00  0.54  0.44  0.00  0.00  0.14  0.00
  GQ8                     1.00   0.02  0.00  0.00  0.98  0.00  0.00  0.00  0.77  0.00
  GQ9                     1.00   0.02  0.00  0.00  0.66  0.32  0.00  0.00  0.81  0.00
  GQ10                    1.00   0.02  0.00  0.00  0.82  0.16  0.00  0.00  0.28  0.00
  GQ11                    1.00   0.02  0.00  0.00  0.20  0.77  0.00  0.00  0.90  0.00
  GQ12                    1.00   0.02  0.00  0.00  0.97  0.01  0.00  0.00  0.90  0.00
  GQ13                    1.00   0.02  0.00  0.00  0.97  0.00  0.00  0.00  0.90  0.00
  GQ14                    1.00   0.02  0.00  0.00  0.84  0.14  0.00  0.00  0.00  0.00
  GQ15                    1.00   0.02  0.00  0.00  0.00  0.98  0.00  0.00  0.01  0.00
  GQ16                    1.00   0.02  0.00  0.00  0.00  0.97  0.00  0.00  0.00  0.00
  GQ17                    1.00   0.02  0.00  0.00  0.64  0.34  0.00  0.00  0.90  0.00
  GQ18                    1.00   0.02  0.00  0.00  0.75  0.23  0.00  0.00  0.08  0.00
  GQ19                    1.00   0.02  0.00  0.00  0.53  0.44  0.00  0.00  0.90  0.00
  GQ20                    1.00   0.02  0.00  0.00  0.98  0.00  0.00  0.00  0.90  0.00
  GQ21                    1.00   0.02  0.00  0.00  0.65  0.32  0.00  0.00  0.90  0.00
  GQ22                    1.00   0.02  0.00  0.00  0.18  0.80  0.00  0.00  0.90  0.00
  GQ23                    1.00   0.02  0.00  0.00  0.20  0.77  0.00  0.00  0.21  0.00
  GQ24                    1.00   0.02  0.00  0.00  0.94  0.04  0.00  0.00  0.75  0.00
  GQ25                    1.00   0.02  0.00  0.00  0.00  0.97  0.00  0.00  0.01  0.00
  GQ26                    1.00   0.02  0.00  0.00  0.02  0.96  0.00  0.00  0.78  0.00
  GQ27                    1.00   0.02  0.00  0.00  0.79  0.19  0.00  0.00  0.69  0.00
  GQ28                    1.00   0.02  0.00  0.00  0.98  0.00  0.00  0.00  0.74  0.00
  GQ29                    1.00   0.02  0.00  0.00  0.98  0.00  0.00  0.00  0.14  0.00
  GQ30                    1.00   0.02  0.00  0.00  0.96  0.02  0.00  0.00  0.12  0.00
  GQ31                    1.00   0.02  0.00  0.00  0.98  0.00  0.00  0.00  0.70  0.00
  GQ32                    1.00   0.02  0.00  0.00  0.18  0.80  0.00  0.00  0.01  0.00
  GQ33                    1.00   0.02  0.00  0.00  0.48  0.49  0.00  0.00  0.60  0.00
  GQ34                    1.00   0.02  0.00  0.00  0.97  0.00  0.00  0.00  0.79  0.00
  GQ35                    1.00   0.02  0.00  0.00  0.36  0.62  0.00  0.00  0.44  0.00
  GQ36                    1.00   0.02  0.00  0.00  0.33  0.64  0.00  0.00  0.65  0.00
  GQ37                    1.00   0.02  0.00  0.00  0.98  0.00  0.00  0.00  0.69  0.00
  GQ38                    1.00   0.02  0.00  0.00  0.98  0.00  0.00  0.00  0.70  0.00
  GQ39                    1.00   0.02  0.00  0.00  0.96  0.02  0.00  0.00  0.69  0.00
  GQ40                    1.00   0.02  0.00  0.00  0.29  0.68  0.00  0.00  0.77  0.00
  GQ41                    1.00   0.02  0.00  0.00  0.98  0.00  0.00  0.00  0.60  0.00
  GQ42                    1.00   0.02  0.00  0.00  0.98  0.00  0.00  0.00  0.42  0.00
  GQ43                    1.00   0.02  0.00  0.00  0.35  0.62  0.00  0.00  0.68  0.00
  GQ44                    1.00   0.02  0.00  0.00  0.98  0.00  0.00  0.00  0.18  0.00
  GQ45                    1.00   0.02  0.00  0.00  0.52  0.46  0.00  0.00  0.80  0.00
  GQ46                    1.00   0.02  0.00  0.00  0.89  0.09  0.00  0.00  0.29  0.00
  GQ47                    1.00   0.02  0.00  0.00  0.98  0.00  0.00  0.00  0.90  0.00
  GQ48                    1.00   0.02  0.00  0.00  0.98  0.00  0.00  0.00  0.90  0.00
  GQ49                    1.00   0.02  0.00  0.00  0.62  0.36  0.00  0.00  0.90  0.00
  GQ50                    1.00   0.02  0.00  0.00  0.98  0.00  0.00  0.00  0.90  0.00
  GQ51                    1.00   0.02  0.00  0.00  0.23  0.75  0.00  0.00  0.47  0.00
  GQ52                    1.00   0.02  0.00  0.00  0.98  0.00  0.00  0.00  0.69  0.00
  GQ53                    1.00   0.02  0.00  0.00  0.98  0.00  0.00  0.00  0.43  0.00
  GQ54                    1.00   0.02  0.00  0.00  0.79  0.19  0.00  0.00  0.90  0.00
  GQ55                    1.00   0.02  0.00  0.00  0.80  0.17  0.00  0.00  0.90  0.00
  GQ56                    1.00   0.02  0.00  0.00  0.36  0.62  0.00  0.00  0.44  0.00
  GQ57                    1.00   0.02  0.00  0.00  0.98  0.00  0.00  0.00  0.86  0.00
  GQ58                    1.00   0.02  0.00  0.00  0.64  0.34  0.00  0.00  0.90  0.00
  GQ59                    1.00   0.02  0.00  0.00  0.98  0.00  0.00  0.00  0.44  0.00
  GQ60                    1.00   0.02  0.00  0.00  0.98  0.00  0.00  0.00  0.16  0.00
  GQ61                    1.00   0.02  0.00  0.00  0.98  0.00  0.00  0.00  0.90  0.00
  GQ62                    1.00   0.02  0.00  0.00  0.98  0.00  0.00  0.00  0.90  0.00
  GQ63                    1.00   0.02  0.00  0.00  0.96  0.01  0.00  0.00  0.90  0.00
  GQ64                    1.00   0.02  0.00  0.00  0.15  0.83  0.00  0.00  0.90  0.00
  GQ65                    1.00   0.02  0.00  0.00  0.98  0.00  0.00  0.00  0.90  0.00
  GQ66                    1.00   0.02  0.00  0.00  0.97  0.01  0.00  0.00  0.90  0.00
  GQ67                    1.00   0.02  0.00  0.00  0.98  0.00  0.00  0.00  0.10  0.00
  GQ68                    1.00   0.02  0.00  0.00  0.98  0.00  0.00  0.00  0.86  0.00
  GQ69                    1.00   0.02  0.00  0.00  0.62  0.35  0.00  0.00  0.90  0.00
  GQ70                    1.00   0.02  0.00  0.00  0.00  0.97  0.00  0.00  0.02  0.00
  GQ71                    1.00   0.02  0.00  0.00  0.00  0.98  0.00  0.00  0.06  0.00
  GQ72                    1.00   0.02  0.00  0.00  0.00  0.98  0.00  0.00  0.32  0.00
  GQ73                    1.00   0.02  0.00  0.00  0.00  0.97  0.00  0.00  0.04  0.00
  GQ74                    1.00   0.02  0.00  0.00  0.89  0.08  0.00  0.00  0.90  0.00
  GQ75                    1.00   0.02  0.00  0.00  0.98  0.00  0.00  0.00  0.90  0.00
  GQ76                    1.00   0.02  0.00  0.00  0.00  0.98  0.00  0.00  0.23  0.00
  GQ77                    1.00   0.02  0.98  0.00  0.00  0.00  0.00  0.00  0.00  0.00
  GQ78                    1.00   0.02  0.00  0.00  0.83  0.15  0.00  0.00  0.60  0.00
  GQ79                    1.00   0.02  0.00  0.00  0.98  0.00  0.00  0.00  0.13  0.00
  GQ80                    1.00   0.02  0.00  0.00  0.98  0.00  0.00  0.00  0.36  0.00
  GQ81                    1.00   0.02  0.00  0.00  0.98  0.00  0.00  0.00  0.00  0.00
  GQ82                    1.00   0.02  0.00  0.00  0.63  0.35  0.00  0.00  0.89  0.00
  GQ83                    1.00   0.02  0.00  0.00  0.00  0.98  0.00  0.00  0.90  0.00
  GQ84                    1.00   0.02  0.00  0.00  0.30  0.67  0.00  0.00  0.78  0.00
  GQ85                    1.00   0.02  0.00  0.00  0.98  0.00  0.00  0.00  0.40  0.00
  GQ86                    1.00   0.02  0.00  0.00  0.97  0.00  0.00  0.00  0.90  0.00
  GQ87                    1.00   0.02  0.00  0.00  0.98  0.00  0.00  0.00  0.90  0.00
  GQ88                    1.00   0.02  0.00  0.00  0.79  0.18  0.00  0.00  0.90  0.00
  GQ89                    1.00   0.02  0.00  0.00  0.98  0.00  0.00  0.00  0.81  0.00
  GQ90                    1.00   0.02  0.00  0.00  0.81  0.17  0.00  0.00  0.90  0.00
  GQ91                    1.00   0.02  0.00  0.00  0.97  0.01  0.00  0.00  0.80  0.00
  GQ92                    1.00   0.02  0.00  0.00  0.87  0.11  0.00  0.00  0.05  0.00
  GQ93                    1.00   0.02  0.00  0.00  0.98  0.00  0.00  0.00  0.70  0.00
  GQ94                    1.00   0.02  0.00  0.00  0.63  0.34  0.00  0.00  0.05  0.00
  GQ95                    1.00   0.02  0.00  0.00  0.98  0.00  0.00  0.00  0.90  0.00
  GQ96                    1.00   0.02  0.00  0.00  0.98  0.00  0.00  0.00  0.30  0.00
  GQ97                    1.00   0.02  0.00  0.00  0.12  0.86  0.00  0.00  0.26  0.00
  GQ98                    1.00   0.02  0.00  0.00  0.98  0.00  0.00  0.00  0.54  0.00
  GQ99                    1.00   0.02  0.00  0.00  0.97  0.01  0.00  0.00  0.90  0.00
  GQ100                   1.00   0.02  0.00  0.00  0.00  0.97  0.00  0.00  0.00  0.00
  GQ101                   1.00   0.02  0.00  0.00  0.81  0.17  0.00  0.00  0.90  0.00
  GQ102                   1.00   0.02  0.00  0.00  0.63  0.35  0.00  0.00  0.90  0.00
  GQ103                   1.00   0.02  0.00  0.00  0.98  0.00  0.00  0.00  0.70  0.00
  GQ104                   1.00   0.02  0.00  0.00  0.56  0.41  0.00  0.00  0.80  0.00
  GQ105                   1.00   0.02  0.00  0.00  0.98  0.00  0.00  0.00  0.12  0.00
  GQ106                   1.00   0.02  0.00  0.00  0.82  0.16  0.00  0.00  0.90  0.00
  GQ107                   1.00   0.02  0.00  0.00  0.64  0.34  0.00  0.00  0.70  0.00
  GQ108                   1.00   0.02  0.00  0.00  0.98  0.00  0.00  0.00  0.15  0.00
  GQ109                   1.00   0.02  0.00  0.00  0.91  0.06  0.00  0.00  0.80  0.00
  GQ110                   1.00   0.02  0.00  0.00  0.97  0.01  0.00  0.00  0.90  0.00
  GQ111                   1.00   0.02  0.00  0.00  0.81  0.17  0.00  0.00  0.80  0.00
  GQ112                   1.00   0.02  0.00  0.00  0.00  0.97  0.00  0.00  0.88  0.00
  GQ113                   1.00   0.02  0.00  0.00  0.00  0.98  0.00  0.00  0.88  0.00
  GQ114                   1.00   0.02  0.00  0.00  0.98  0.00  0.00  0.00  0.13  0.00
  GQ115                   1.00   0.02  0.00  0.00  0.96  0.01  0.00  0.00  0.90  0.00
  GQ116                   1.00   0.02  0.00  0.00  0.98  0.00  0.00  0.00  0.90  0.00
  GQ117                   1.00   0.02  0.00  0.00  0.00  0.97  0.00  0.00  0.00  0.00
  GQ118                   1.00   0.02  0.00  0.00  0.34  0.63  0.00  0.00  0.90  0.00
  GQ119                   1.00   0.02  0.00  0.00  0.67  0.31  0.00  0.00  0.55  0.00
  GQ120                   1.00   0.02  0.06  0.00  0.92  0.00  0.00  0.00  0.00  0.00
  GQ121                   1.00   0.02  0.00  0.00  0.97  0.01  0.00  0.00  0.13  0.00
  GQ122                   1.00   0.02  0.00  0.00  0.77  0.20  0.00  0.00  0.90  0.00
  GQ123                   1.00   0.02  0.00  0.00  0.75  0.23  0.00  0.00  0.90  0.00
  GQ124                   1.00   0.02  0.00  0.00  0.97  0.00  0.00  0.00  0.90  0.00
  GQ125                   1.00   0.02  0.00  0.00  0.97  0.01  0.00  0.00  0.79  0.00
  GQ126                   1.00   0.02  0.00  0.00  0.76  0.21  0.00  0.00  0.82  0.00
  GQ127                   1.00   0.02  0.00  0.00  0.98  0.00  0.00  0.00  0.45  0.00
  GQ128                   1.00   0.02  0.00  0.00  0.37  0.61  0.00  0.00  0.71  0.00
  GQ129                   1.00   0.02  0.00  0.00  0.98  0.00  0.00  0.00  0.26  0.00
  GQ130                   1.00   0.02  0.00  0.00  0.77  0.20  0.00  0.00  0.20  0.00
  GQ131                   1.00   0.02  0.00  0.00  0.89  0.08  0.00  0.00  0.69  0.00
  
  
  *************************
  Conduit Surcharge Summary
  *************************
  
  ----------------------------------------------------------------------------
                                                           Hours        Hours 
                         --------- Hours Full --------   Above Full   Capacity
  Conduit                Both Ends  Upstream  Dnstream   Normal Flow   Limited
  ----------------------------------------------------------------------------
  GQ1                         0.01      0.87      0.01      0.01         0.01
  GQ4                         5.21      5.21      7.60      0.01         0.01
  GQ5                         1.90      1.90      7.54      0.01         0.01
  GQ6                         0.01      0.01      1.90      0.01         0.01
  GQ7                         3.20      3.20      4.54      0.01         0.01
  GQ8                         0.64      0.64      3.20      0.01         0.01
  GQ9                         0.64      0.64      7.78      0.01         0.01
  GQ10                        5.94      5.94      7.84      0.18         0.01
  GQ12                        0.01      0.01      7.46      0.01         0.01
  GQ13                        0.01      0.01      4.52      0.01         0.01
  GQ16                        0.01      0.88      0.01      0.01         0.01
  GQ18                        0.01      0.01      7.28      7.52         0.01
  GQ20                        0.01      0.01      1.82      0.01         0.01
  GQ21                        0.01      0.01      1.82      0.01         0.01
  GQ22                        0.01      0.01      0.74      0.01         0.01
  GQ23                        0.74      0.74      0.94      0.01         0.01
  GQ24                        1.03      1.03      7.68      0.01         0.01
  GQ25                        0.01      0.97      0.01      0.96         0.01
  GQ26                        0.01      0.01      1.12      0.01         0.01
  GQ27                        1.12      1.12      7.48      0.01         0.01
  GQ28                        0.01      0.01      7.56      0.01         0.01
  GQ29                        7.38      7.38      7.56      0.01         0.01
  GQ30                        7.48      7.48      7.62      0.01         0.01
  GQ31                        0.97      0.97      7.88      0.01         0.01
  GQ32                        0.79      2.01      0.79      1.55         0.38
  GQ33                        2.01      2.01      7.88      0.01         0.01
  GQ34                        0.01      0.01      2.01      0.01         0.01
  GQ35                        1.95      1.98      2.01      0.11         0.01
  GQ36                        1.96      1.98      1.98      2.03         1.95
  GQ37                        0.79      0.79      7.75      0.01         0.01
  GQ38                        0.01      0.01      7.75      0.01         0.01
  GQ39                        1.65      1.65      7.46      0.01         0.01
  GQ40                        0.79      0.79      1.65      0.01         0.01
  GQ41                        0.88      0.88      7.55      0.01         0.01
  GQ42                        3.16      3.16      7.59      0.01         0.01
  GQ43                        2.12      2.12      3.16      0.04         0.01
  GQ44                        5.17      5.17      7.28      0.01         0.01
  GQ45                        0.01      0.01      4.05      0.01         0.01
  GQ46                        4.05      4.05      5.17      0.01         0.01
  GQ47                        0.01      0.01      7.63      0.01         0.01
  GQ48                        0.01      0.01      7.67      0.01         0.01
  GQ49                        0.01      0.01      7.67      0.01         0.01
  GQ50                        0.01      0.01      1.37      0.01         0.01
  GQ51                        0.87      1.37      0.87      1.51         0.87
  GQ52                        0.80      0.80      7.38      0.67         0.67
  GQ53                        2.75      2.75      7.61      0.01         0.01
  GQ54                        0.01      0.01      7.69      0.01         0.01
  GQ55                        0.01      0.01      7.69      0.01         0.01
  GQ56                        2.12      2.12      3.20      0.47         0.05
  GQ57                        0.01      0.01      2.12      0.01         0.01
  GQ58                        0.01      0.01      7.50      0.01         0.01
  GQ59                        3.16      3.16      7.50      0.01         0.01
  GQ60                        1.90      1.90      4.01      0.01         0.01
  GQ61                        0.01      0.01      7.17      0.01         0.01
  GQ62                        0.01      0.01      7.22      0.01         0.01
  GQ63                        0.01      0.01      7.26      0.01         0.01
  GQ66                        0.01      0.01      7.29      0.01         0.01
  GQ67                        7.18      7.18      7.23      0.01         0.01
  GQ68                        0.01      0.01      7.40      0.01         0.01
  GQ69                        0.01      0.01      7.61      0.01         0.01
  GQ75                        0.01      0.01      7.40      0.01         0.01
  GQ78                        2.11      2.11      7.72      0.01         0.01
  GQ79                        0.01      0.01      7.72      0.01         0.01
  GQ80                        2.11      2.11      7.56      0.01         0.01
  GQ81                        7.46      7.56      7.46      7.41         2.12
  GQ82                        0.01      0.01      7.46      0.01         0.01
  GQ83                        0.01      0.01      0.98      0.01         0.01
  GQ84                        1.05      1.05      3.36      0.05         0.01
  GQ85                        1.05      1.05      7.90      0.01         0.01
  GQ86                        0.01      0.01      7.65      0.01         0.01
  GQ87                        0.01      0.01      7.65      0.01         0.01
  GQ88                        0.01      0.01      7.66      0.01         0.01
  GQ89                        0.01      0.01      7.46      0.01         0.01
  GQ90                        0.01      0.01      7.37      0.01         0.01
  GQ91                        0.01      0.01      7.52      0.01         0.01
  GQ92                        1.18      1.21      1.54      1.00         0.92
  GQ93                        1.54      1.54      2.05      0.01         0.01
  GQ94                        2.05      2.05      2.12      2.04         1.98
  GQ95                        0.01      0.01      7.73      0.01         0.01
  GQ96                        1.15      1.18      1.21      1.09         0.97
  GQ97                        0.01      0.01      0.01      0.64         0.01
  GQ98                        0.01      0.01      7.61      0.01         0.01
  GQ99                        0.01      0.01      7.25      0.01         0.01
  GQ100                       0.01      0.89      0.01      0.83         0.01
  GQ101                       0.01      0.01      7.53      0.01         0.01
  GQ102                       0.01      0.01      7.58      0.01         0.01
  GQ103                       0.93      0.93      7.65      0.01         0.01
  GQ104                       0.79      0.79      7.65      0.05         0.01
  GQ105                       7.53      7.53      7.58      7.13         0.01
  GQ106                       0.01      0.01      7.56      0.01         0.01
  GQ107                       1.65      1.65      7.56      0.01         0.01
  GQ108                       7.42      7.42      7.53      0.01         0.01
  GQ109                       0.01      0.01      1.65      0.01         0.01
  GQ110                       0.01      0.01      7.40      0.01         0.01
  GQ111                       0.01      0.01      7.53      0.01         0.01
  GQ114                       0.01      0.01      7.68      0.01         0.01
  GQ116                       0.01      0.01      7.65      0.01         0.01
  GQ119                       2.17      2.17      7.67      0.01         0.01
  GQ120                       0.01      0.01      7.62      0.01         0.01
  GQ121                       7.55      7.55      7.67      0.01         0.01
  GQ122                       0.01      0.01      7.55      0.01         0.01
  GQ123                       0.01      0.01      7.56      0.01         0.01
  GQ125                       0.01      0.01      7.52      0.01         0.01
  GQ126                       0.01      0.01      7.53      0.01         0.01
  GQ127                       2.12      2.12      2.17      0.13         0.10
  GQ128                       0.01      0.01      1.98      0.01         0.01
  GQ129                       4.54      4.54      7.68      0.01         0.01
  GQ130                       4.90      4.90      8.15      0.01         0.01
  GQ131                       1.37      1.37      7.90      0.01         0.01
  

  Analysis begun on:  Wed Mar 29 19:11:58 2023
  Analysis ended on:  Wed Mar 29 19:12:17 2023
  Total elapsed time: 00:00:19