
  OWA STORM WATER MANAGEMENT MODEL - VERSION v5.1.14 (OWA 2022-07-31)
  --------------------------------------------------------------

  INP file created by DSDAConvertToSwmmTools 
  version 0.0.1 EcoVista 
  Title/Notes: 
  
  
  *********************************************************
  NOTE: The summary statistics displayed in this report are
  based on results found at every computational time step,  
  not just on results from each reporting time step.
  *********************************************************
  
  ****************
  Analysis Options
  ****************
  Flow Units ............... CMS
  Process Models:
    Rainfall/Runoff ........ YES
    RDII ................... NO
    Snowmelt ............... NO
    Groundwater ............ NO
    Flow Routing ........... YES
    Ponding Allowed ........ NO
    Water Quality .......... NO
  Infiltration Method ...... GREEN_AMPT
  Flow Routing Method ...... DYNWAVE
  Surcharge Method ......... EXTRAN
  Starting Date ............ 07/15/2020 00:00:00
  Ending Date .............. 07/15/2020 09:00:00
  Antecedent Dry Days ...... 0.0
  Report Time Step ......... 00:30:00
  Wet Time Step ............ 00:05:00
  Dry Time Step ............ 01:00:00
  Routing Time Step ........ 30.00 sec
  Variable Time Step ....... YES
  Maximum Trials ........... 8
  Number of Threads ........ 1
  Head Tolerance ........... 0.001500 m
  
  
  **************************        Volume         Depth
  Runoff Quantity Continuity     hectare-m            mm
  **************************     ---------       -------
  Total Precipitation ......       251.380        62.900
  Evaporation Loss .........         2.995         0.749
  Infiltration Loss ........        67.180        16.810
  Surface Runoff ...........       171.270        42.855
  Final Storage ............        10.450         2.615
  Continuity Error (%) .....        -0.204
  
  
  **************************        Volume        Volume
  Flow Routing Continuity        hectare-m      10^6 ltr
  **************************     ---------     ---------
  Dry Weather Inflow .......         0.000         0.000
  Wet Weather Inflow .......       170.854      1708.560
  Groundwater Inflow .......         0.000         0.000
  RDII Inflow ..............         0.000         0.000
  External Inflow ..........         0.000         0.000
  External Outflow .........        14.344       143.445
  Flooding Loss ............       154.482      1544.837
  Evaporation Loss .........         0.000         0.000
  Exfiltration Loss ........         0.000         0.000
  Initial Stored Volume ....         0.000         0.000
  Final Stored Volume ......         1.830        18.300
  Continuity Error (%) .....         0.116
  
  
  *************************
  Highest Continuity Errors
  *************************
  Node jd51 (3.20%)
  Node jd64 (2.59%)
  Node jd59 (2.53%)
  Node jd31 (2.43%)
  Node jd55 (2.37%)
  
  
  ***************************
  Time-Step Critical Elements
  ***************************
  Link GQ73 (96.98%)
  
  
  ********************************
  Highest Flow Instability Indexes
  ********************************
  Link GQ67 (22)
  Link GQ114 (11)
  Link GQ29 (9)
  Link GQ46 (7)
  Link GQ96 (6)
  
  
  *************************
  Routing Time Step Summary
  *************************
  Minimum Time Step           :     3.52 sec
  Average Time Step           :     6.43 sec
  Maximum Time Step           :    30.00 sec
  Percent in Steady State     :    -0.00
  Average Iterations per Step :     4.79
  Percent Not Converging      :    20.50
  
  
  ***************************
  Subcatchment Runoff Summary
  ***************************
  
  ------------------------------------------------------------------------------------------------------------------------------
                            Total      Total      Total      Total     Imperv       Perv      Total       Total     Peak  Runoff
                           Precip      Runon       Evap      Infil     Runoff     Runoff     Runoff      Runoff   Runoff   Coeff
  Subcatchment                 mm         mm         mm         mm         mm         mm         mm    10^6 ltr      CMS
  ------------------------------------------------------------------------------------------------------------------------------
  1                         62.90       0.00       0.45      35.24      25.90       0.00      25.90       10.25     0.94   0.412
  2                         62.90       0.00       0.80      13.39      45.67       0.00      45.67       41.30     3.84   0.726
  3                         62.90       0.00       0.84      11.48      47.96       0.00      47.96       19.19     1.77   0.763
  4                         62.90       0.00       0.86       9.86      49.78       0.00      49.78        4.18     0.38   0.791
  5                         62.90       0.00       0.76      16.02      43.98       0.00      43.98        5.44     0.50   0.699
  6                         62.90       0.00       0.73      18.03      42.19       0.00      42.19        3.92     0.36   0.671
  7                         62.90       0.00       0.76      16.09      43.38       0.00      43.38       18.91     1.75   0.690
  8                         62.90       0.00       0.97       3.52      55.30       0.00      55.30        7.70     0.71   0.879
  9                         62.90       0.00       0.99       1.76      57.09       0.00      57.09        6.68     0.62   0.908
  10                        62.90       0.00       0.86      10.23      49.17       0.00      49.17       11.08     1.02   0.782
  11                        62.90       0.00       0.92       6.01      52.89       0.00      52.89       26.22     2.42   0.841
  12                        62.90       0.00       0.73      18.08      41.81       0.00      41.81       20.40     1.88   0.665
  13                        62.90       0.00       0.91       6.78      52.22       0.00      52.22       23.62     2.18   0.830
  14                        62.90       0.00       0.91       6.86      52.39       0.00      52.39        9.89     0.91   0.833
  15                        62.90       0.00       0.84      11.06      48.33       0.00      48.33       16.34     1.51   0.768
  16                        62.90       0.00       0.87       9.14      50.04       0.00      50.04       14.78     1.36   0.796
  17                        62.90       0.00       0.82      12.55      46.93       0.00      46.93       19.64     1.81   0.746
  18                        62.90       0.00       0.94       4.95      53.88       0.00      53.88       22.25     2.06   0.857
  19                        62.90       0.00       0.94       5.17      53.62       0.00      53.62       12.06     1.12   0.852
  20                        62.90       0.00       0.93       5.52      52.98       0.00      52.98       28.43     2.64   0.842
  21                        62.90       0.00       0.99       1.85      56.75       0.00      56.75       17.81     1.65   0.902
  22                        62.90       0.00       0.97       2.97      55.63       0.00      55.63        6.84     0.63   0.884
  23                        62.90       0.00       0.90       7.69      51.20       0.00      51.20       29.31     2.71   0.814
  24                        62.90       0.00       0.87       9.60      49.39       0.00      49.39        8.76     0.81   0.785
  25                        62.90       0.00       0.93       5.90      53.20       0.00      53.20       10.77     0.99   0.846
  26                        62.90       0.00       0.79      14.35      44.85       0.00      44.85       15.74     1.46   0.713
  27                        62.90       0.00       0.95       4.71      53.75       0.00      53.75       22.71     2.11   0.854
  28                        62.90       0.00       0.97       3.47      55.06       0.00      55.06       26.03     2.41   0.875
  29                        62.90       0.00       0.86       9.76      49.69       0.00      49.69       11.60     1.07   0.790
  30                        62.90       0.00       0.99       2.12      57.01       0.00      57.01        4.09     0.37   0.906
  31                        62.90       0.00       1.00       1.32      57.33       0.00      57.33       12.64     1.17   0.911
  32                        62.90       0.00       0.98       2.80      55.87       0.00      55.87       24.14     2.23   0.888
  33                        62.90       0.00       0.99       2.05      56.48       0.00      56.48       19.90     1.84   0.898
  34                        62.90       0.00       0.92       6.37      52.60       0.00      52.60       15.42     1.42   0.836
  35                        62.90       0.00       0.95       4.74      54.09       0.00      54.09       22.44     2.07   0.860
  36                        62.90       0.00       0.78      14.98      44.71       0.00      44.71       17.60     1.62   0.711
  37                        62.90       0.00       0.97       3.40      55.32       0.00      55.32       12.28     1.13   0.880
  38                        62.90       0.00       0.91       7.12      51.95       0.00      51.95       19.81     1.83   0.826
  39                        62.90       0.00       0.82      12.51      47.02       0.00      47.02       19.86     1.83   0.748
  40                        62.90       0.00       0.91       6.80      52.22       0.00      52.22       11.94     1.10   0.830
  41                        62.90       0.00       0.93       5.54      53.59       0.00      53.59       10.57     0.97   0.852
  42                        62.90       0.00       0.93       5.59      53.02       0.00      53.02       13.09     1.21   0.843
  43                        62.90       0.00       0.78      14.71      44.66       0.00      44.66       35.30     3.27   0.710
  44                        62.90       0.00       0.84      11.47      47.68       0.00      47.68       23.04     2.13   0.758
  45                        62.90       0.00       0.79      14.59      44.87       0.00      44.87       32.47     3.00   0.713
  46                        62.90       0.00       0.76      16.26      43.63       0.00      43.63       21.81     2.00   0.694
  47                        62.90       0.00       0.80      13.91      45.50       0.00      45.50       53.05     4.91   0.723
  48                        62.90       0.00       0.95       4.35      54.02       0.00      54.02       31.35     2.91   0.859
  49                        62.90       0.00       0.87       9.32      49.47       0.00      49.47       33.49     3.11   0.786
  50                        62.90       0.00       0.96       3.54      54.47       0.00      54.47       21.41     1.99   0.866
  51                        62.90       0.00       0.92       6.11      52.21       0.00      52.21        9.77     0.91   0.830
  52                        62.90       0.00       0.45      35.29      25.98       0.00      25.98       26.67     2.44   0.413
  53                        62.90       0.00       0.65      22.91      37.44       0.00      37.44       39.88     3.66   0.595
  54                        62.90       0.00       0.80      13.55      46.03       0.00      46.03       11.22     1.03   0.732
  55                        62.90       0.00       0.46      34.64      26.57       0.00      26.57       20.97     1.92   0.422
  56                        62.90       0.00       0.17      52.24      10.15       0.00      10.15        8.27     0.75   0.161
  57                        62.90       0.00       0.91       7.00      51.60       0.00      51.60       42.87     3.98   0.820
  58                        62.90       0.00       0.84      11.11      48.27       0.00      48.27        7.95     0.73   0.767
  59                        62.90       0.00       0.82      12.35      47.45       0.00      47.45        6.04     0.55   0.754
  60                        62.90       0.00       0.31      43.96      17.91       0.00      17.91        5.13     0.47   0.285
  61                        62.90       0.00       0.48      33.44      27.56       0.00      27.56       10.39     0.95   0.438
  62                        62.90       0.00       0.67      21.89      38.08       0.00      38.08       44.63     4.13   0.605
  63                        62.90       0.00       0.91       6.93      51.45       0.00      51.45       99.51     9.26   0.818
  64                        62.90       0.00       0.68      21.15      38.97       0.00      38.97        8.37     0.77   0.620
  65                        62.90       0.00       0.92       6.14      52.26       0.00      52.26       35.15     3.27   0.831
  66                        62.90       0.00       0.73      18.19      41.44       0.00      41.44       10.56     0.98   0.659
  67                        62.90       0.00       0.68      21.12      39.07       0.00      39.07       12.63     1.16   0.621
  68                        62.90       0.00       0.81      12.78      46.83       0.00      46.83        5.20     0.48   0.745
  69                        62.90       0.00       0.48      33.48      27.76       0.00      27.76        8.88     0.81   0.441
  70                        62.90       0.00       0.67      21.50      38.57       0.00      38.57       31.73     2.93   0.613
  71                        62.90       0.00       0.83      11.76      47.76       0.00      47.76        5.86     0.54   0.759
  72                        62.90       0.00       0.88       8.98      50.34       0.00      50.34        6.27     0.58   0.800
  73                        62.90       0.00       0.79      14.05      45.79       0.00      45.79        7.61     0.70   0.728
  74                        62.90       0.00       0.76      16.34      43.60       0.00      43.60        9.38     0.86   0.693
  75                        62.90       0.00       0.84      11.14      48.37       0.00      48.37        6.97     0.64   0.769
  76                        62.90       0.00       0.89       8.45      50.94       0.00      50.94        4.93     0.45   0.810
  77                        62.90       0.00       0.94       4.84      54.13       0.00      54.13        5.86     0.54   0.861
  78                        62.90       0.00       0.91       6.89      52.16       0.00      52.16        5.73     0.53   0.829
  79                        62.90       0.00       0.40      38.33      23.13       0.00      23.13       24.53     2.24   0.368
  80                        62.90       0.00       0.75      16.60      42.98       0.00      42.98       26.91     2.49   0.683
  81                        62.90       0.00       0.76      15.87      43.60       0.00      43.60       19.01     1.76   0.693
  82                        62.90       0.00       0.73      17.86      41.77       0.00      41.77       38.30     3.54   0.664
  83                        62.90       0.00       0.92       6.60      52.58       0.00      52.58        6.43     0.59   0.836
  84                        62.90       0.00       0.86       9.77      49.49       0.00      49.49        5.91     0.55   0.787
  85                        62.90       0.00       1.01       0.48      58.40       0.00      58.40        5.43     0.50   0.928
  86                        62.90       0.00       0.94       5.31      53.70       0.00      53.70        7.91     0.73   0.854
  87                        62.90       0.00       1.00       1.35      57.23       0.00      57.23        7.53     0.70   0.910
  88                        62.90       0.00       0.90       7.84      51.45       0.00      51.45        4.93     0.45   0.818
  89                        62.90       0.00       0.94       5.06      54.01       0.00      54.01       10.40     0.96   0.859
  90                        62.90       0.00       1.02       0.01      59.04       0.00      59.04        0.68     0.06   0.939
  91                        62.90       0.00       0.85      10.54      48.36       0.00      48.36       10.54     0.98   0.769
  92                        62.90       0.00       0.94       4.89      54.09       0.00      54.09        6.76     0.62   0.860
  93                        62.90       0.00       0.77      15.62      44.02       0.00      44.02       22.53     2.08   0.700
  94                        62.90       0.00       0.69      20.37      40.02       0.00      40.02        2.80     0.26   0.636
  95                        62.90       0.00       1.02       0.07      58.77       0.00      58.77        1.28     0.12   0.934
  96                        62.90       0.00       0.82      12.18      47.44       0.00      47.44        5.80     0.53   0.754
  97                        62.90       0.00       1.00       1.33      57.44       0.00      57.44        5.71     0.53   0.913
  98                        62.90       0.00       0.83      11.88      47.76       0.00      47.76        5.89     0.54   0.759
  99                        62.90       0.00       0.41      37.63      23.81       0.00      23.81        8.84     0.81   0.379
  100                       62.90       0.00       0.46      34.81      26.48       0.00      26.48        6.79     0.62   0.421
  101                       62.90       0.00       0.47      34.12      27.00       0.00      27.00       13.23     1.21   0.429
  102                       62.90       0.00       0.76      16.00      43.77       0.00      43.77       10.67     0.98   0.696
  103                       62.90       0.00       0.25      47.22      14.93       0.00      14.93        5.43     0.49   0.237
  104                       62.90       0.00       0.17      52.29      10.08       0.00      10.08        9.76     0.88   0.160
  105                       62.90       0.00       0.84      11.17      48.42       0.00      48.42        6.33     0.58   0.770
  106                       62.90       0.00       0.46      34.88      26.37       0.00      26.37        6.44     0.59   0.419
  
  
  ******************
  Node Depth Summary
  ******************
  
  ---------------------------------------------------------------------------------
                                 Average  Maximum  Maximum  Time of Max    Reported
                                   Depth    Depth      HGL   Occurrence   Max Depth
  Node                 Type       Meters   Meters   Meters  days hr:min      Meters
  ---------------------------------------------------------------------------------
  jd1                  JUNCTION     0.16     0.24   273.24     0  07:00        0.24
  jd2                  JUNCTION     1.32     3.00   270.00     0  04:15        3.00
  jd3                  JUNCTION     2.77     3.00   266.00     0  02:17        3.00
  jd4                  JUNCTION     2.32     3.00   270.00     0  03:03        3.00
  jd5                  JUNCTION     0.12     0.18   274.18     0  07:00        0.18
  jd6                  JUNCTION     0.15     0.23   275.23     0  07:00        0.23
  jd7                  JUNCTION     0.43     0.61   264.71     0  07:00        0.61
  jd8                  JUNCTION     2.53     3.00   267.00     0  02:37        3.00
  jd9                  JUNCTION     2.39     3.00   268.00     0  02:37        3.00
  jd10                 JUNCTION     2.79     3.00   273.00     0  02:11        3.00
  jd11                 JUNCTION     0.13     0.21   282.21     0  07:00        0.21
  jd12                 JUNCTION     2.81     3.00   272.00     0  02:05        3.00
  jd13                 JUNCTION     0.16     0.27   289.27     0  07:00        0.27
  jd14                 JUNCTION     1.17     3.00   283.00     0  04:14        3.00
  jd15                 JUNCTION     0.39     0.66   278.66     0  07:00        0.66
  jd16                 JUNCTION     0.43     0.74   274.74     0  07:00        0.74
  jd17                 JUNCTION     2.72     3.00   278.80     0  02:31        3.00
  jd18                 JUNCTION     1.22     3.00   282.00     0  04:19        3.00
  jd19                 JUNCTION     2.03     3.00   270.00     0  04:05        3.00
  jd20                 JUNCTION     0.27     0.43   273.43     0  07:00        0.43
  jd21                 JUNCTION     2.77     3.00   273.00     0  02:15        3.00
  jd22                 JUNCTION     2.34     3.00   275.00     0  04:05        3.00
  jd23                 JUNCTION     0.88     3.00   281.00     0  04:27        3.00
  jd24                 JUNCTION     0.19     0.30   285.30     0  07:00        0.30
  jd25                 JUNCTION     0.70     3.00   282.00     0  04:36        2.51
  jd26                 JUNCTION     1.22     3.00   288.00     0  04:14        3.00
  jd27                 JUNCTION     0.60     3.00   294.00     0  04:37        2.49
  jd28                 JUNCTION     2.83     3.00   290.00     0  01:56        3.00
  jd29                 JUNCTION     0.13     0.21   299.21     0  07:00        0.21
  jd30                 JUNCTION     0.18     0.27   290.27     0  07:00        0.27
  jd31                 JUNCTION     1.30     3.00   275.00     0  02:32        2.20
  jd32                 JUNCTION     2.82     3.00   275.00     0  02:01        3.00
  jd33                 JUNCTION     0.27     0.44   289.44     0  07:00        0.44
  jd34                 JUNCTION     0.99     3.00   297.00     0  04:17        3.00
  jd35                 JUNCTION     2.86     3.00   292.00     0  01:44        3.00
  jd36                 JUNCTION     1.51     3.00   302.00     0  04:11        3.00
  jd37                 JUNCTION     1.44     3.00   306.00     0  04:10        3.00
  jd38                 JUNCTION     0.84     3.00   300.00     0  04:28        2.37
  jd39                 JUNCTION     2.78     3.00   297.00     0  02:17        3.00
  jd40                 JUNCTION     2.03     3.00   302.00     0  04:09        3.00
  jd41                 JUNCTION     2.71     3.00   296.00     0  02:42        3.00
  jd42                 JUNCTION     0.28     0.47   305.47     0  07:00        0.47
  jd43                 JUNCTION     2.01     3.00   300.00     0  04:08        3.00
  jd44                 JUNCTION     1.99     3.00   286.00     0  04:10        3.00
  jd45                 JUNCTION     2.80     3.00   282.00     0  02:09        3.00
  jd46                 JUNCTION     0.80     3.00   278.00     0  04:39        3.00
  jd47                 JUNCTION     0.21     0.33   315.33     0  07:00        0.33
  jd48                 JUNCTION     0.15     0.24   325.24     0  07:00        0.24
  jd49                 JUNCTION     0.56     3.00   292.00     0  06:35        3.00
  jd50                 JUNCTION     2.84     3.00   278.00     0  01:53        3.00
  jd51                 JUNCTION     2.68     3.00   313.00     0  02:46        3.00
  jd52                 JUNCTION     1.10     3.00   326.00     0  04:16        2.02
  jd53                 JUNCTION     1.49     3.00   325.00     0  04:15        3.00
  jd54                 JUNCTION     0.41     0.72   326.72     0  07:00        0.72
  jd55                 JUNCTION     2.08     3.00   325.00     0  04:04        3.00
  jd56                 JUNCTION     0.27     0.47   327.47     0  07:00        0.47
  jd59                 JUNCTION     2.65     3.00   320.80     0  02:51        3.00
  jd60                 JUNCTION     2.81     3.00   319.00     0  02:04        3.00
  jd61                 JUNCTION     0.20     0.32   329.32     0  07:00        0.32
  jd62                 JUNCTION     0.09     0.14   335.14     0  07:00        0.14
  jd63                 JUNCTION     0.09     0.15   324.15     0  07:00        0.15
  jd64                 JUNCTION     2.52     3.00   321.00     0  02:51        2.97
  jd65                 JUNCTION     2.68     3.00   307.00     0  02:40        3.00
  jd66                 JUNCTION     2.78     3.00   304.00     0  02:13        3.00
  jd69                 JUNCTION     0.33     0.55   333.55     0  07:00        0.55
  jd79                 JUNCTION     2.81     3.00   274.00     0  01:59        3.00
  jd80                 JUNCTION     2.74     3.00   279.00     0  02:23        3.00
  jd81                 JUNCTION     0.20     0.34   288.34     0  07:00        0.34
  jd83                 JUNCTION     2.86     3.00   323.00     0  01:42        3.00
  jd84                 JUNCTION     1.10     3.00   326.00     0  04:12        3.00
  jd85                 JUNCTION     2.79     3.00   324.00     0  02:11        3.00
  jd87                 JUNCTION     2.80     3.00   322.00     0  02:08        3.00
  jd89                 JUNCTION     0.23     0.40   324.40     0  07:00        0.40
  jd90                 JUNCTION     0.19     0.32   328.32     0  07:00        0.32
  jd92                 JUNCTION     0.21     0.39   326.39     0  07:00        0.39
  jd93                 JUNCTION     1.49     3.00   327.00     0  04:13        3.00
  jd94                 JUNCTION     0.90     3.00   329.20     0  04:18        2.30
  jd95                 JUNCTION     1.07     3.00   330.00     0  04:18        2.84
  jd96                 JUNCTION     2.81     3.00   308.00     0  02:04        3.00
  jd97                 JUNCTION     1.12     3.00   330.20     0  04:18        3.00
  jd98                 JUNCTION     0.27     0.47   329.47     0  07:00        0.47
  jd99                 JUNCTION     2.78     3.00   327.00     0  02:14        3.00
  jd101                JUNCTION     0.15     0.24   321.24     0  07:00        0.24
  jd102                JUNCTION     0.78     3.00   327.00     0  04:25        3.00
  jd103                JUNCTION     0.15     0.25   318.25     0  07:00        0.25
  jd106                JUNCTION     2.72     3.00   287.00     0  02:31        3.00
  jd107                JUNCTION     0.29     0.46   332.46     0  07:00        0.46
  jd108                JUNCTION     1.28     1.60   327.60     0  07:00        1.60
  jd109                JUNCTION     0.23     0.39   343.39     0  07:00        0.39
  jd110                JUNCTION     2.79     3.00   327.00     0  02:12        3.00
  jd111                JUNCTION     0.10     0.15   344.15     0  07:00        0.15
  jd112                JUNCTION     0.13     0.20   334.20     0  07:00        0.20
  jd113                JUNCTION     0.14     0.22   348.22     0  07:00        0.22
  jd114                JUNCTION     2.80     3.00   317.00     0  02:07        3.00
  jd117                JUNCTION     1.75     3.00   319.00     0  02:16        3.00
  jd118                JUNCTION     0.13     0.20   330.20     0  07:00        0.20
  jd120                JUNCTION     0.24     0.45   327.45     0  07:00        0.45
  jd121                JUNCTION     0.23     0.39   320.39     0  07:00        0.39
  jd122                JUNCTION     2.77     3.00   276.00     0  02:15        3.00
  jd123                JUNCTION     2.77     3.00   276.20     0  02:18        3.00
  jd124                JUNCTION     2.88     3.00   271.00     0  01:33        3.00
  jd125                JUNCTION     2.18     3.00   278.00     0  03:00        3.00
  jd126                JUNCTION     2.86     3.00   275.00     0  01:43        3.00
  jd135                JUNCTION     0.20     0.36   289.36     0  07:00        0.36
  jd136                JUNCTION     0.38     0.65   341.65     0  07:00        0.65
  psk1                 OUTFALL      0.13     0.20   279.20     0  07:00        0.20
  psk2                 OUTFALL      0.17     0.27   270.27     0  07:00        0.27
  psk3                 OUTFALL      0.43     0.74   271.74     0  07:00        0.74
  psk4                 OUTFALL      0.00     0.00   280.00     0  00:00        0.00
  psk5                 OUTFALL      0.16     0.24   263.24     0  07:00        0.24
  psk6                 OUTFALL      0.11     0.18   259.18     0  07:00        0.18
  psk7                 OUTFALL      0.43     0.61   262.61     0  07:00        0.61
  psk8                 OUTFALL      0.00     0.00   317.00     0  00:00        0.00
  
  
  *******************
  Node Inflow Summary
  *******************
  
  -------------------------------------------------------------------------------------------------
                                  Maximum  Maximum                  Lateral       Total        Flow
                                  Lateral    Total  Time of Max      Inflow      Inflow     Balance
                                   Inflow   Inflow   Occurrence      Volume      Volume       Error
  Node                 Type           CMS      CMS  days hr:min    10^6 ltr    10^6 ltr     Percent
  -------------------------------------------------------------------------------------------------
  jd1                  JUNCTION     0.941    1.281     0  07:00        10.2        15.3       0.341
  jd2                  JUNCTION     1.461    1.910     0  07:00        15.7        21.1       0.451
  jd3                  JUNCTION     1.752    3.470     0  07:00        18.9        47.8       0.850
  jd4                  JUNCTION     2.109    2.338     0  07:00        22.7        25.2       1.114
  jd5                  JUNCTION     0.615    0.982     0  07:00        6.66        11.1       0.159
  jd6                  JUNCTION     0.711    0.711     0  07:00        7.68        7.68       0.199
  jd7                  JUNCTION     0.359    2.850     0  07:00        3.91        41.7       0.312
  jd8                  JUNCTION     0.499    1.444     0  07:00        5.43        25.8       0.957
  jd9                  JUNCTION     0.383    1.450     0  07:00        4.17        25.5       0.865
  jd10                 JUNCTION     1.020    1.289     0  07:00        11.1          14       0.729
  jd11                 JUNCTION     1.506    1.506     0  07:00        16.3        16.3       0.238
  jd12                 JUNCTION     1.135    2.511     0  07:00        12.2        26.8       0.520
  jd13                 JUNCTION     2.056    2.056     0  07:00        22.2        22.2       0.193
  jd14                 JUNCTION     2.412    2.731     0  07:00          26        29.3       0.310
  jd15                 JUNCTION     0.992    1.959     0  07:00        10.7          23       0.834
  jd16                 JUNCTION     1.067    4.160     0  07:00        11.6        45.2       0.345
  jd17                 JUNCTION     2.232    4.441     0  07:00        24.1        53.8       1.495
  jd18                 JUNCTION     1.769    2.589     0  07:00        19.1        27.9       0.498
  jd19                 JUNCTION     1.642    2.916     0  07:00        17.8        33.1       0.301
  jd20                 JUNCTION     1.365    1.617     0  07:00        14.7        20.4       0.475
  jd21                 JUNCTION     0.633    3.456     0  07:00        6.83        46.2       0.737
  jd22                 JUNCTION     1.115    2.112     0  07:00          12        24.8       0.337
  jd23                 JUNCTION     1.102    3.281     0  07:00        11.9        34.5       0.181
  jd24                 JUNCTION     1.811    1.811     0  07:00        19.6        19.6       0.234
  jd25                 JUNCTION     1.424    2.079     0  07:00        15.4        22.3       0.352
  jd26                 JUNCTION     2.073    3.231     0  07:00        22.4        36.2       0.341
  jd27                 JUNCTION     2.134    2.777     0  07:00          23        34.5       0.335
  jd28                 JUNCTION     2.913    3.769     0  07:00        31.3        41.9       0.326
  jd29                 JUNCTION     1.167    1.167     0  07:00        12.6        12.6       0.155
  jd30                 JUNCTION     1.215    3.145     0  07:00        13.1        37.1       0.191
  jd31                 JUNCTION     0.811    1.657     0  07:00        8.74        18.6       2.485
  jd32                 JUNCTION     1.646    4.979     0  07:00        17.8          65       0.391
  jd33                 JUNCTION     1.621    2.675     0  07:00        17.6        29.6       0.214
  jd34                 JUNCTION     2.005    2.005     0  07:00        21.8        21.8       0.158
  jd35                 JUNCTION     1.829    4.010     0  07:00        19.8        55.1       0.248
  jd36                 JUNCTION     3.110    4.157     0  07:00        33.4        49.5       0.373
  jd37                 JUNCTION     3.269    3.269     0  07:00        35.2        35.2       0.273
  jd38                 JUNCTION     3.002    3.851     0  07:00        32.4        47.8       0.551
  jd39                 JUNCTION     2.079    5.358     0  07:00        22.5        73.1       0.712
  jd40                 JUNCTION     3.545    5.735     0  07:00        38.2          77       0.581
  jd41                 JUNCTION     2.489    7.808     0  07:00        26.8        94.6       2.305
  jd42                 JUNCTION     3.268    3.582     0  07:00        35.1        38.5       0.373
  jd43                 JUNCTION     3.662    5.920     0  07:00        39.8        67.4       0.599
  jd44                 JUNCTION     4.905    7.782     0  07:00        52.9         102       0.622
  jd45                 JUNCTION     1.993    4.218     0  07:00        21.4        63.7       0.517
  jd46                 JUNCTION     0.909    0.909     0  07:00        9.75        9.75       1.100
  jd47                 JUNCTION     2.927    2.927     0  07:00        31.7        31.7       0.268
  jd48                 JUNCTION     0.810    0.810     0  07:00        8.86        8.86       0.269
  jd49                 JUNCTION     3.981    3.981     0  07:00        42.8        42.8       0.305
  jd50                 JUNCTION     4.127    8.057     0  07:00        44.5         103       0.431
  jd51                 JUNCTION     0.862    3.964     0  07:00        9.36        42.9       3.309
  jd52                 JUNCTION     1.760    5.207     0  06:12          19          51       0.594
  jd53                 JUNCTION     0.979    3.710     0  07:00        10.5        47.4       0.262
  jd54                 JUNCTION     0.526    2.612     0  07:00        5.69        28.3       0.387
  jd55                 JUNCTION     0.958    4.069     0  07:00        10.4        38.7       2.432
  jd56                 JUNCTION     0.582    1.703     0  07:00        6.32        18.5       0.308
  jd59                 JUNCTION     0.578    2.867     0  07:00        6.26        30.6       2.600
  jd60                 JUNCTION     1.034    2.194     0  07:00        11.2        23.8       0.546
  jd61                 JUNCTION     1.161    1.305     0  07:00        12.6        14.2       0.225
  jd62                 JUNCTION     0.467    0.467     0  07:00        5.12        5.12       0.112
  jd63                 JUNCTION     0.641    0.641     0  07:00        6.95        6.95       0.162
  jd64                 JUNCTION     0.540    1.333     0  07:00        5.84        14.4       2.658
  jd65                 JUNCTION     9.255    9.255     0  07:00        99.3        99.3       0.215
  jd66                 JUNCTION     1.212    3.515     0  07:00        13.2        38.3       0.843
  jd69                 JUNCTION     2.240    2.303     0  07:00        24.5        25.2       0.312
  jd79                 JUNCTION     2.182    3.098     0  07:00        23.6        38.5       0.465
  jd80                 JUNCTION     2.424    3.031     0  07:00        26.2        33.9       0.452
  jd81                 JUNCTION     1.842    1.842     0  07:00        19.9        19.9       0.088
  jd83                 JUNCTION     1.918    2.496     0  07:00        20.9        27.5       0.321
  jd84                 JUNCTION     2.437    2.437     0  07:00        26.6        26.6       0.232
  jd85                 JUNCTION     0.553    0.906     0  07:00        6.03        9.88       0.862
  jd87                 JUNCTION     0.453    1.094     0  07:00        4.92        11.9       0.633
  jd89                 JUNCTION     0.529    0.529     0  07:00        5.72        5.72       0.326
  jd90                 JUNCTION     0.539    0.539     0  07:00        5.84        5.84       0.241
  jd92                 JUNCTION     0.453    0.453     0  07:00        4.91        4.91       0.179
  jd93                 JUNCTION     0.978    1.940     0  07:00        10.5        22.1       0.407
  jd94                 JUNCTION     0.062    0.991     0  06:13       0.676        11.6       0.229
  jd95                 JUNCTION     0.118    0.931     0  06:14        1.28          11       0.606
  jd96                 JUNCTION     0.884    1.179     0  07:00        9.74        12.9       0.754
  jd97                 JUNCTION     0.955    0.955     0  07:00        10.4        10.4       0.151
  jd98                 JUNCTION     0.533    0.533     0  07:00        5.78        5.78       0.205
  jd99                 JUNCTION     0.256    0.558     0  07:00         2.8        7.43       0.768
  jd101                JUNCTION     0.698    1.394     0  07:00        7.59        15.1       0.212
  jd102                JUNCTION     0.696    0.696     0  07:00        7.51        7.51       0.277
  jd103                JUNCTION     0.479    0.479     0  07:00        5.19        5.19       0.098
  jd106                JUNCTION     0.375    2.145     0  07:00        4.08        23.6       1.661
  jd107                JUNCTION     0.541    1.778     0  07:00        5.87        19.3       0.360
  jd108                JUNCTION     0.588    0.588     0  07:00        6.42        6.44       1.028
  jd109                JUNCTION     0.983    0.983     0  07:00        10.6        10.6       0.092
  jd110                JUNCTION     0.747    1.112     0  07:00        8.25        12.2       1.260
  jd111                JUNCTION     0.620    0.620     0  07:00        6.78        6.78       0.185
  jd112                JUNCTION     0.729    2.026     0  07:00        7.89        22.1       0.153
  jd113                JUNCTION     0.490    0.490     0  07:00        5.41        5.41       0.058
  jd114                JUNCTION     0.592    4.308     0  07:00        6.41        64.6       0.494
  jd117                JUNCTION     0.545    1.780     0  07:00        5.89        19.5       0.803
  jd118                JUNCTION     0.499    0.499     0  07:00        5.42        5.42       0.050
  jd120                JUNCTION     0.623    0.623     0  07:00        6.74        6.74       0.159
  jd121                JUNCTION     0.770    0.770     0  07:00        8.35        8.35       0.196
  jd122                JUNCTION     1.829    6.074     0  07:00        19.8        73.8       0.767
  jd123                JUNCTION     1.880    4.334     0  07:00        20.4        63.2       1.121
  jd124                JUNCTION     2.714    3.787     0  07:00        29.2        53.3       0.118
  jd125                JUNCTION     2.640    4.315     0  07:00        28.4        63.7       0.523
  jd126                JUNCTION     3.835    4.698     0  07:00        41.2        54.2       0.194
  jd135                JUNCTION     0.973    0.973     0  07:00        10.5        10.5       0.149
  jd136                JUNCTION     0.806    1.297     0  07:00        8.82        14.2       0.378
  psk1                 OUTFALL      0.000    0.983     0  07:00           0        10.6       0.000
  psk2                 OUTFALL      0.000    2.401     0  07:00           0        27.8       0.000
  psk3                 OUTFALL      0.000    4.160     0  07:00           0        45.1       0.000
  psk4                 OUTFALL      0.000    0.000     0  00:00           0           0       0.000 ltr
  psk5                 OUTFALL      0.000    0.832     0  07:00           0        9.93       0.000
  psk6                 OUTFALL      0.000    0.753     0  07:00           0        8.51       0.000
  psk7                 OUTFALL      0.000    2.850     0  07:00           0        41.5       0.000
  psk8                 OUTFALL      0.000    0.000     0  00:00           0           0       0.000 ltr
  
  
  **********************
  Node Surcharge Summary
  **********************
  
  Surcharging occurs when water rises above the top of the highest conduit.
  ---------------------------------------------------------------------
                                               Max. Height   Min. Depth
                                   Hours       Above Crown    Below Rim
  Node                 Type      Surcharged         Meters       Meters
  ---------------------------------------------------------------------
  jd2                  JUNCTION        2.43          2.200        0.000
  jd3                  JUNCTION        6.71          2.200        0.000
  jd4                  JUNCTION        5.95          2.200        0.000
  jd8                  JUNCTION        6.59          2.200        0.000
  jd9                  JUNCTION        6.37          2.200        0.000
  jd10                 JUNCTION        6.81          2.400        0.000
  jd12                 JUNCTION        6.92          2.400        0.000
  jd14                 JUNCTION        2.05          2.400        0.000
  jd17                 JUNCTION        6.48          2.200        0.000
  jd18                 JUNCTION        1.98          2.000        0.000
  jd19                 JUNCTION        4.23          2.200        0.000
  jd21                 JUNCTION        6.75          2.200        0.000
  jd22                 JUNCTION        6.57          2.400        0.000
  jd23                 JUNCTION        1.53          2.000        0.000
  jd25                 JUNCTION        1.08          2.000        0.000
  jd26                 JUNCTION        2.11          2.400        0.000
  jd27                 JUNCTION        1.11          2.400        0.000
  jd28                 JUNCTION        7.07          2.400        0.000
  jd31                 JUNCTION        6.47          2.200        0.000
  jd32                 JUNCTION        6.98          2.200        0.000
  jd34                 JUNCTION        1.67          2.400        0.000
  jd35                 JUNCTION        7.26          2.400        0.000
  jd36                 JUNCTION        3.02          2.400        0.000
  jd37                 JUNCTION        2.65          2.400        0.000
  jd38                 JUNCTION        1.40          2.000        0.000
  jd39                 JUNCTION        6.72          2.000        0.000
  jd40                 JUNCTION        4.15          2.200        0.000
  jd41                 JUNCTION        6.30          1.000        0.000
  jd43                 JUNCTION        3.97          2.200        0.000
  jd44                 JUNCTION        4.07          2.000        0.000
  jd45                 JUNCTION        6.85          2.000        0.000
  jd46                 JUNCTION        1.14          2.200        0.000
  jd49                 JUNCTION        0.47          2.200        0.000
  jd50                 JUNCTION        7.12          2.200        0.000
  jd51                 JUNCTION        6.23          1.350        0.000
  jd52                 JUNCTION        2.40          1.500        0.000
  jd53                 JUNCTION        2.73          1.800        0.000
  jd55                 JUNCTION        4.17          1.500        0.000
  jd59                 JUNCTION        6.15          1.500        0.000
  jd60                 JUNCTION        6.94          2.400        0.000
  jd64                 JUNCTION        6.17          1.800        0.000
  jd65                 JUNCTION        6.33          2.400        0.000
  jd66                 JUNCTION        6.77          2.200        0.000
  jd79                 JUNCTION        7.01          2.400        0.000
  jd80                 JUNCTION        6.61          2.400        0.000
  jd83                 JUNCTION        7.31          2.400        0.000
  jd84                 JUNCTION        1.84          2.400        0.000
  jd85                 JUNCTION        6.81          2.400        0.000
  jd87                 JUNCTION        6.86          2.400        0.000
  jd93                 JUNCTION        2.90          2.200        0.000
  jd94                 JUNCTION        2.07          2.200        0.000
  jd95                 JUNCTION        1.86          2.200        0.000
  jd96                 JUNCTION        6.93          2.200        0.000
  jd97                 JUNCTION        1.87          2.200        0.000
  jd99                 JUNCTION        6.76          2.400        0.000
  jd102                JUNCTION        1.44          2.400        0.000
  jd106                JUNCTION        6.47          2.000        0.000
  jd108                JUNCTION        6.89          0.604        1.396
  jd110                JUNCTION        6.80          2.000        0.000
  jd114                JUNCTION        6.88          2.000        0.000
  jd117                JUNCTION        6.72          2.200        0.000
  jd122                JUNCTION        6.75          2.200        0.000
  jd123                JUNCTION        6.69          2.200        0.000
  jd124                JUNCTION        7.44          2.400        0.000
  jd125                JUNCTION        5.17          2.200        0.000
  jd126                JUNCTION        7.28          2.400        0.000
  
  
  *********************
  Node Flooding Summary
  *********************
  
  Flooding refers to all water that overflows a node, whether it ponds or not.
  --------------------------------------------------------------------------
                                                             Total   Maximum
                                 Maximum   Time of Max       Flood    Ponded
                        Hours       Rate    Occurrence      Volume     Depth
  Node                 Flooded       CMS   days hr:min    10^6 ltr    Meters
  --------------------------------------------------------------------------
  jd2                     1.88     0.702      0  07:00       3.226     0.000
  jd3                     6.71     3.470      0  07:00      47.411     0.000
  jd4                     4.28     1.828      0  07:00      13.773     0.000
  jd8                     4.05     0.337      0  06:55       2.707     0.000
  jd9                     4.02     0.505      0  07:00       4.914     0.000
  jd10                    6.81     1.289      0  07:00      13.898     0.000
  jd12                    6.91     2.511      0  07:00      26.676     0.000
  jd14                    1.80     0.903      0  07:00       3.897     0.000
  jd17                    6.48     3.612      0  07:00      33.283     0.000
  jd18                    1.69     1.065      0  07:00       5.071     0.000
  jd19                    2.91     1.849      0  07:00      11.641     0.000
  jd21                    6.47     3.456      0  07:00      45.535     0.000
  jd22                    3.21     1.288      0  07:00       8.508     0.000
  jd23                    0.61     0.491      0  06:20       0.500     0.000
  jd25                    0.01     0.491      0  06:25       0.007     0.000
  jd26                    1.93     1.335      0  07:00       6.736     0.000
  jd27                    0.01     0.294      0  06:24       0.004     0.000
  jd28                    7.07     3.769      0  07:00      41.746     0.000
  jd31                    0.01     0.556      0  02:32       0.004     0.000
  jd32                    6.97     4.979      0  07:00      64.792     0.000
  jd34                    1.28     0.203      0  07:00       0.511     0.000
  jd35                    7.25     4.010      0  07:00      54.970     0.000
  jd36                    2.43     2.080      0  07:00      11.686     0.000
  jd37                    2.32     1.881      0  07:00      10.124     0.000
  jd38                    0.01     0.479      0  06:20       0.009     0.000
  jd39                    6.71     5.358      0  07:00      72.574     0.000
  jd40                    3.93     3.173      0  07:00      25.157     0.000
  jd41                    6.30     7.808      0  07:00      92.497     0.000
  jd43                    3.93     4.089      0  07:00      28.976     0.000
  jd44                    3.00     3.881      0  07:00      23.745     0.000
  jd45                    6.85     4.218      0  07:00      63.363     0.000
  jd46                    0.57     0.196      0  06:28       0.090     0.000
  jd49                    0.42     0.355      0  06:35       0.097     0.000
  jd50                    7.12     8.057      0  07:00     102.081     0.000
  jd51                    6.23     3.964      0  07:00      41.546     0.000
  jd52                    0.03     2.790      0  06:12       0.143     0.000
  jd53                    1.86     1.408      0  07:00       6.951     0.000
  jd55                    2.28     4.069      0  07:00      23.991     0.000
  jd59                    6.15     2.867      0  07:00      29.827     0.000
  jd60                    6.93     2.194      0  07:00      23.681     0.000
  jd64                    0.01     0.246      0  02:51       0.006     0.000
  jd65                    6.33     8.162      0  07:00      72.471     0.000
  jd66                    6.77     3.515      0  07:00      37.957     0.000
  jd79                    6.77     2.846      0  07:00      32.629     0.000
  jd80                    6.48     2.874      0  07:00      29.644     0.000
  jd83                    7.30     2.496      0  07:00      27.416     0.000
  jd84                    1.75     0.597      0  07:00       2.688     0.000
  jd85                    6.81     0.906      0  07:00       9.801     0.000
  jd87                    6.86     1.094      0  07:00      11.797     0.000
  jd93                    1.78     0.754      0  07:00       3.831     0.000
  jd94                    0.02     0.620      0  06:14       0.017     0.000
  jd95                    0.02     0.054      0  04:18       0.002     0.000
  jd96                    6.92     1.179      0  07:00      12.836     0.000
  jd97                    1.51     0.173      0  07:00       0.601     0.000
  jd99                    6.76     0.558      0  07:00       7.375     0.000
  jd102                   0.01     0.066      0  06:17       0.001     0.000
  jd106                   6.47     2.145      0  07:00      23.194     0.000
  jd110                   6.79     1.112      0  07:00      12.092     0.000
  jd114                   6.73     4.308      0  07:00      64.239     0.000
  jd117                   1.66     0.366      0  07:00       1.439     0.000
  jd122                   6.69     6.074      0  07:00      73.099     0.000
  jd123                   6.69     4.019      0  07:00      54.885     0.000
  jd124                   7.44     3.787      0  07:00      53.224     0.000
  jd125                   3.97     1.929      0  07:00      13.250     0.000
  jd126                   7.28     4.697      0  07:00      54.129     0.000
  
  
  ***********************
  Outfall Loading Summary
  ***********************
  
  -----------------------------------------------------------
                         Flow       Avg       Max       Total
                         Freq      Flow      Flow      Volume
  Outfall Node           Pcnt       CMS       CMS    10^6 ltr
  -----------------------------------------------------------
  psk1                  97.54     0.466     0.983      10.583
  psk2                  97.52     1.229     2.401      27.833
  psk3                  97.58     1.993     4.160      45.056
  psk4                   0.00     0.000     0.000       0.000
  psk5                  97.56     0.433     0.832       9.925
  psk6                  97.52     0.373     0.753       8.512
  psk7                  97.58     1.746     2.850      41.535
  psk8                   0.00     0.000     0.000       0.000
  -----------------------------------------------------------
  System                73.16     6.239     0.000     143.444
  
  
  ********************
  Link Flow Summary
  ********************
  
  -----------------------------------------------------------------------------
                                 Maximum  Time of Max   Maximum    Max/    Max/
                                  |Flow|   Occurrence   |Veloc|    Full    Full
  Link                 Type          CMS  days hr:min     m/sec    Flow   Depth
  -----------------------------------------------------------------------------
  GQ1                  CONDUIT     0.355     0  04:21      1.95    0.93    0.70
  GQ2                  CONDUIT     1.618     0  07:00      2.80    0.77    0.70
  GQ3                  CONDUIT     0.983     0  07:00      7.11    0.04    0.13
  GQ4                  CONDUIT     0.510     0  04:34      1.80    1.00    1.00
  GQ5                  CONDUIT     1.208     0  04:37      2.40    1.00    1.00
  GQ6                  CONDUIT     0.449     0  07:00      1.29    0.20    0.65
  GQ7                  CONDUIT     1.675     0  04:28      3.56    1.00    1.00
  GQ8                  CONDUIT     1.045     0  06:54      2.08    1.00    1.00
  GQ9                  CONDUIT     2.837     0  06:42      5.74    1.00    1.00
  GQ10                 CONDUIT     1.136     0  02:39      4.07    1.04    1.00
  GQ11                 CONDUIT     0.314     0  07:00      1.97    0.34    0.59
  GQ12                 CONDUIT     0.384     0  07:00      1.75    0.42    0.73
  GQ13                 CONDUIT     0.229     0  07:00      0.71    0.11    0.61
  GQ14                 CONDUIT     0.123     0  07:00      1.21    0.17    0.26
  GQ15                 CONDUIT     0.244     0  07:00      4.41    0.98    0.75
  GQ16                 CONDUIT     1.931     0  07:00      4.08    0.93    0.63
  GQ17                 CONDUIT     0.587     0  07:00      2.20    0.19    0.52
  GQ18                 CONDUIT     1.108     0  07:00      2.50    4.99    0.88
  GQ19                 CONDUIT     0.796     0  07:00      2.66    0.09    0.41
  GQ20                 CONDUIT     0.175     0  07:00      0.50    0.09    0.60
  GQ21                 CONDUIT     0.646     0  07:00      1.55    0.20    0.65
  GQ22                 CONDUIT     0.654     0  07:00      1.86    0.20    0.65
  GQ23                 CONDUIT     1.455     0  07:00      2.34    0.71    1.00
  GQ24                 CONDUIT     2.020     0  06:37      4.02    1.00    1.00
  GQ25                 CONDUIT     1.054     0  07:00      4.10    1.18    0.87
  GQ26                 CONDUIT     0.739     0  06:25      2.86    0.87    0.87
  GQ27                 CONDUIT     0.997     0  06:37      3.52    1.00    1.00
  GQ28                 CONDUIT     0.343     0  07:00      0.83    0.37    0.77
  GQ29                 CONDUIT     1.657     0  07:00      3.30    0.77    1.00
  GQ30                 CONDUIT     0.824     0  04:29      2.91    1.00    1.00
  GQ31                 CONDUIT     0.747     0  06:38      2.64    1.00    1.00
  GQ32                 CONDUIT     0.739     0  04:36      2.92    1.19    1.00
  GQ33                 CONDUIT     1.434     0  04:50      5.07    1.00    1.00
  GQ34                 CONDUIT     0.507     0  07:00      1.91    0.80    0.89
  GQ35                 CONDUIT     0.710     0  04:11      2.52    1.32    1.00
  GQ36                 CONDUIT     0.974     0  04:11      3.45    1.21    1.00
  GQ37                 CONDUIT     0.652     0  07:00      2.31    0.93    1.00
  GQ38                 CONDUIT     0.204     0  07:00      0.93    0.29    0.72
  GQ39                 CONDUIT     0.782     0  04:26      2.76    1.00    1.00
  GQ40                 CONDUIT     0.769     0  07:00      2.72    0.96    1.00
  GQ41                 CONDUIT     1.920     0  07:00      2.44    0.89    1.00
  GQ42                 CONDUIT     1.359     0  04:39      2.70    1.00    1.00
  GQ43                 CONDUIT     2.308     0  07:49      4.70    1.03    1.00
  GQ44                 CONDUIT     0.946     0  04:26      1.88    1.00    1.00
  GQ45                 CONDUIT     1.274     0  07:00      3.08    0.52    0.77
  GQ46                 CONDUIT     1.068     0  04:32      2.12    1.00    1.00
  GQ47                 CONDUIT     0.268     0  07:00      1.33    0.25    0.67
  GQ48                 CONDUIT     0.267     0  07:00      1.32    0.25    0.67
  GQ49                 CONDUIT     1.109     0  07:00      5.05    0.42    0.73
  GQ50                 CONDUIT     0.319     0  07:00      1.45    0.42    0.73
  GQ51                 CONDUIT     0.995     0  04:24      3.60    1.52    1.00
  GQ52                 CONDUIT     0.852     0  07:01      1.69    1.13    1.00
  GQ53                 CONDUIT     2.225     0  04:27      2.83    1.00    1.00
  GQ54                 CONDUIT     0.664     0  07:00      2.84    0.57    0.77
  GQ55                 CONDUIT     0.496     0  07:00      2.35    0.34    0.70
  GQ56                 CONDUIT     1.998     0  04:08      4.08    1.09    1.00
  GQ57                 CONDUIT     0.996     0  07:00      2.33    0.65    0.79
  GQ58                 CONDUIT     2.075     0  07:00      4.85    0.65    0.79
  GQ59                 CONDUIT     1.203     0  07:20      2.39    1.00    1.00
  GQ60                 CONDUIT     2.696     0  06:12      1.60    0.65    1.00
  GQ61                 CONDUIT     0.427     0  07:00      0.40    0.05    0.58
  GQ62                 CONDUIT     0.886     0  07:00      0.66    0.09    0.60
  GQ63                 CONDUIT     2.041     0  07:00      1.07    0.06    0.58
  GQ64                 CONDUIT     0.144     0  07:00      1.52    0.11    0.38
  GQ65                 CONDUIT     0.062     0  07:00      0.39    0.11    0.57
  GQ66                 CONDUIT     0.254     0  07:00      0.82    0.08    0.59
  GQ67                 CONDUIT     1.333     0  07:00      1.18    0.92    1.00
  GQ68                 CONDUIT     1.400     0  07:00      2.27    0.44    0.73
  GQ69                 CONDUIT     2.303     0  07:00      5.08    0.82    0.85
  GQ70                 CONDUIT     0.753     0  07:00      9.05    0.11    0.22
  GQ71                 CONDUIT     0.832     0  07:00      6.39    0.20    0.31
  GQ72                 CONDUIT     2.850     0  07:00      5.73    0.68    0.61
  GQ73                 CONDUIT     2.401     0  07:00     14.23    0.15    0.27
  GQ74                 CONDUIT     0.520     0  07:00      1.55    0.09    0.47
  GQ75                 CONDUIT     0.540     0  07:00      1.03    0.16    0.63
  GQ76                 CONDUIT     4.160     0  07:00      6.66    0.90    0.74
  GQ77                 CONDUIT     0.000     0  00:00      0.00    0.00    0.33
  GQ78                 CONDUIT     0.916     0  04:30      3.24    1.00    1.00
  GQ79                 CONDUIT     0.252     0  06:30      1.08    0.54    0.85
  GQ80                 CONDUIT     0.608     0  04:41      2.15    1.00    1.00
  GQ81                 CONDUIT     0.471     0  02:31      1.67    2.99    1.00
  GQ82                 CONDUIT     0.886     0  07:00      3.73    0.61    0.78
  GQ83                 CONDUIT     0.956     0  07:00      4.03    0.61    0.78
  GQ84                 CONDUIT     1.302     0  04:11      4.71    1.03    1.00
  GQ85                 CONDUIT     0.579     0  04:36      2.05    1.00    1.00
  GQ86                 CONDUIT     0.260     0  07:00      1.43    0.11    0.61
  GQ87                 CONDUIT     0.092     0  07:00      0.50    0.14    0.62
  GQ88                 CONDUIT     0.641     0  07:00      2.74    0.57    0.77
  GQ89                 CONDUIT     0.529     0  07:00      2.10    0.70    0.83
  GQ90                 CONDUIT     0.539     0  07:00      2.33    0.54    0.76
  GQ91                 CONDUIT     0.453     0  07:00      1.82    0.55    0.82
  GQ92                 CONDUIT     0.934     0  06:13      2.01    1.34    1.00
  GQ93                 CONDUIT     0.962     0  07:00      1.91    0.83    1.00
  GQ94                 CONDUIT     1.227     0  06:11      2.44    1.46    1.00
  GQ95                 CONDUIT     0.295     0  07:00      0.95    0.08    0.59
  GQ96                 CONDUIT     0.825     0  06:14      1.64    1.41    1.00
  GQ97                 CONDUIT     0.533     0  07:00      2.24    0.96    0.78
  GQ98                 CONDUIT     0.302     0  07:00      1.14    0.43    0.89
  GQ99                 CONDUIT     0.967     0  07:00      0.91    0.05    0.58
  GQ100                CONDUIT     0.696     0  07:00      3.31    1.19    0.70
  GQ101                CONDUIT     0.479     0  07:00      2.24    0.36    0.71
  GQ102                CONDUIT     1.951     0  07:00      4.66    0.59    0.78
  GQ103                CONDUIT     0.623     0  07:00      2.20    0.96    1.00
  GQ104                CONDUIT     1.390     0  04:35      5.02    1.01    1.00
  GQ105                CONDUIT     0.429     0  02:18      0.85    1.36    1.00
  GQ106                CONDUIT     0.511     0  07:00      2.24    0.51    0.75
  GQ107                CONDUIT     1.114     0  06:38      3.94    1.00    1.00
  GQ108                CONDUIT     0.829     0  06:34      1.65    1.00    1.00
  GQ109                CONDUIT     0.389     0  07:00      1.61    0.53    0.80
  GQ110                CONDUIT     0.647     0  07:00      1.31    0.09    0.60
  GQ111                CONDUIT     0.583     0  07:00      2.42    0.53    0.80
  GQ112                CONDUIT     1.778     0  07:00      3.39    0.32    0.49
  GQ113                CONDUIT     0.983     0  07:00      4.59    0.74    0.71
  GQ114                CONDUIT     0.588     0  07:00      0.95    0.24    0.73
  GQ115                CONDUIT     0.255     0  07:00      1.12    0.03    0.26
  GQ116                CONDUIT     0.365     0  07:00      0.78    0.05    0.58
  GQ117                CONDUIT     1.297     0  07:00      4.83    0.81    0.53
  GQ118                CONDUIT     0.490     0  07:00      2.22    0.17    0.55
  GQ119                CONDUIT     2.302     0  07:07      4.58    1.00    1.00
  GQ120                CONDUIT     0.000     0  00:00      0.00    0.00    0.50
  GQ121                CONDUIT     1.414     0  04:42      2.81    1.00    1.00
  GQ122                CONDUIT     0.735     0  07:00      2.23    0.13    0.62
  GQ123                CONDUIT     0.499     0  07:00      2.49    0.24    0.67
  GQ124                CONDUIT     0.308     0  07:00      1.16    0.13    0.57
  GQ125                CONDUIT     0.623     0  07:00      2.37    0.70    0.88
  GQ126                CONDUIT     0.770     0  07:00      3.09    0.73    0.82
  GQ127                CONDUIT     0.851     0  04:12      1.75    1.09    1.00
  GQ128                CONDUIT     2.611     0  07:00      2.69    0.57    0.80
  GQ129                CONDUIT     1.313     0  04:21      2.61    1.00    1.00
  GQ130                CONDUIT     1.073     0  04:20      3.79    1.00    1.00
  GQ131                CONDUIT     0.862     0  06:26      3.05    1.00    1.00
  
  
  ***************************
  Flow Classification Summary
  ***************************
  
  -------------------------------------------------------------------------------------
                      Adjusted    ---------- Fraction of Time in Flow Class ---------- 
                       /Actual         Up    Down  Sub   Sup   Up    Down  Norm  Inlet 
  Conduit               Length    Dry  Dry   Dry   Crit  Crit  Crit  Crit  Ltd   Ctrl  
  -------------------------------------------------------------------------------------
  GQ1                     1.00   0.02  0.00  0.00  0.31  0.67  0.00  0.00  0.00  0.00
  GQ2                     1.00   0.02  0.00  0.00  0.03  0.95  0.00  0.00  0.83  0.00
  GQ3                     1.00   0.02  0.00  0.00  0.00  0.97  0.00  0.00  0.05  0.00
  GQ4                     1.00   0.02  0.00  0.00  0.98  0.00  0.00  0.00  0.15  0.00
  GQ5                     1.00   0.02  0.00  0.00  0.98  0.00  0.00  0.00  0.44  0.00
  GQ6                     1.00   0.02  0.00  0.00  0.98  0.00  0.00  0.00  0.89  0.00
  GQ7                     1.00   0.02  0.00  0.00  0.67  0.30  0.00  0.00  0.23  0.00
  GQ8                     1.00   0.02  0.00  0.00  0.98  0.00  0.00  0.00  0.67  0.00
  GQ9                     1.00   0.02  0.00  0.00  0.42  0.55  0.00  0.00  0.72  0.00
  GQ10                    1.00   0.02  0.00  0.00  0.93  0.05  0.00  0.00  0.17  0.00
  GQ11                    1.00   0.02  0.00  0.00  0.10  0.88  0.00  0.00  0.89  0.00
  GQ12                    1.00   0.02  0.00  0.00  0.97  0.01  0.00  0.00  0.89  0.00
  GQ13                    1.00   0.02  0.00  0.00  0.98  0.00  0.00  0.00  0.89  0.00
  GQ14                    1.00   0.02  0.00  0.00  0.84  0.13  0.00  0.00  0.00  0.00
  GQ15                    1.00   0.02  0.00  0.00  0.00  0.98  0.00  0.00  0.02  0.00
  GQ16                    1.00   0.02  0.00  0.00  0.00  0.97  0.00  0.00  0.00  0.00
  GQ17                    1.00   0.02  0.00  0.00  0.53  0.45  0.00  0.00  0.89  0.00
  GQ18                    1.00   0.02  0.00  0.00  0.77  0.20  0.00  0.00  0.06  0.00
  GQ19                    1.00   0.02  0.00  0.00  0.26  0.71  0.00  0.00  0.89  0.00
  GQ20                    1.00   0.02  0.00  0.00  0.98  0.00  0.00  0.00  0.89  0.00
  GQ21                    1.00   0.02  0.00  0.00  0.71  0.27  0.00  0.00  0.89  0.00
  GQ22                    1.00   0.02  0.00  0.00  0.29  0.69  0.00  0.00  0.89  0.00
  GQ23                    1.00   0.02  0.00  0.00  0.33  0.64  0.00  0.00  0.20  0.00
  GQ24                    1.00   0.02  0.00  0.00  0.91  0.07  0.00  0.00  0.63  0.00
  GQ25                    1.00   0.02  0.00  0.00  0.00  0.98  0.00  0.00  0.01  0.00
  GQ26                    1.00   0.02  0.00  0.00  0.04  0.94  0.00  0.00  0.73  0.00
  GQ27                    1.00   0.02  0.00  0.00  0.81  0.17  0.00  0.00  0.49  0.00
  GQ28                    1.00   0.02  0.00  0.00  0.98  0.00  0.00  0.00  0.62  0.00
  GQ29                    1.00   0.02  0.00  0.00  0.98  0.00  0.00  0.00  0.14  0.00
  GQ30                    1.00   0.02  0.00  0.00  0.96  0.02  0.00  0.00  0.11  0.00
  GQ31                    1.00   0.02  0.00  0.00  0.98  0.00  0.00  0.00  0.62  0.00
  GQ32                    1.00   0.02  0.00  0.00  0.28  0.69  0.00  0.00  0.02  0.00
  GQ33                    1.00   0.02  0.00  0.00  0.59  0.39  0.00  0.00  0.43  0.00
  GQ34                    1.00   0.02  0.00  0.00  0.98  0.00  0.00  0.00  0.68  0.00
  GQ35                    1.00   0.02  0.00  0.00  0.57  0.40  0.00  0.00  0.32  0.00
  GQ36                    1.00   0.02  0.00  0.00  0.46  0.52  0.00  0.00  0.53  0.00
  GQ37                    1.00   0.02  0.00  0.00  0.98  0.00  0.00  0.00  0.55  0.00
  GQ38                    1.00   0.02  0.00  0.00  0.98  0.00  0.00  0.00  0.61  0.00
  GQ39                    1.00   0.02  0.00  0.00  0.96  0.02  0.00  0.00  0.57  0.00
  GQ40                    1.00   0.02  0.00  0.00  0.36  0.61  0.00  0.00  0.66  0.00
  GQ41                    1.00   0.02  0.00  0.00  0.98  0.00  0.00  0.00  0.43  0.00
  GQ42                    1.00   0.02  0.00  0.00  0.98  0.00  0.00  0.00  0.27  0.00
  GQ43                    1.00   0.02  0.00  0.00  0.52  0.46  0.00  0.00  0.52  0.00
  GQ44                    1.00   0.02  0.00  0.00  0.98  0.00  0.00  0.00  0.14  0.00
  GQ45                    1.00   0.02  0.00  0.00  0.50  0.48  0.00  0.00  0.71  0.00
  GQ46                    1.00   0.02  0.00  0.00  0.91  0.07  0.00  0.00  0.15  0.00
  GQ47                    1.00   0.02  0.00  0.00  0.98  0.00  0.00  0.00  0.89  0.00
  GQ48                    1.00   0.02  0.00  0.00  0.98  0.00  0.00  0.00  0.89  0.00
  GQ49                    1.00   0.02  0.00  0.00  0.36  0.61  0.00  0.00  0.89  0.00
  GQ50                    1.00   0.02  0.00  0.00  0.98  0.00  0.00  0.00  0.89  0.00
  GQ51                    1.00   0.02  0.00  0.00  0.33  0.65  0.00  0.00  0.42  0.00
  GQ52                    1.00   0.02  0.00  0.00  0.98  0.00  0.00  0.00  0.58  0.00
  GQ53                    1.00   0.02  0.00  0.00  0.98  0.00  0.00  0.00  0.36  0.00
  GQ54                    1.00   0.02  0.00  0.00  0.64  0.33  0.00  0.00  0.89  0.00
  GQ55                    1.00   0.02  0.00  0.00  0.67  0.30  0.00  0.00  0.89  0.00
  GQ56                    1.00   0.02  0.00  0.00  0.63  0.34  0.00  0.00  0.27  0.00
  GQ57                    1.00   0.02  0.00  0.00  0.98  0.00  0.00  0.00  0.89  0.00
  GQ58                    1.00   0.02  0.00  0.00  0.50  0.48  0.00  0.00  0.89  0.00
  GQ59                    1.00   0.02  0.00  0.00  0.98  0.00  0.00  0.00  0.36  0.00
  GQ60                    1.00   0.02  0.00  0.00  0.98  0.00  0.00  0.00  0.17  0.00
  GQ61                    1.00   0.02  0.00  0.00  0.98  0.00  0.00  0.00  0.89  0.00
  GQ62                    1.00   0.02  0.00  0.00  0.98  0.00  0.00  0.00  0.89  0.00
  GQ63                    1.00   0.02  0.00  0.00  0.96  0.01  0.00  0.00  0.89  0.00
  GQ64                    1.00   0.02  0.00  0.00  0.00  0.97  0.00  0.00  0.89  0.00
  GQ65                    1.00   0.02  0.00  0.00  0.98  0.00  0.00  0.00  0.89  0.00
  GQ66                    1.00   0.02  0.00  0.00  0.97  0.01  0.00  0.00  0.89  0.00
  GQ67                    1.00   0.02  0.00  0.00  0.98  0.00  0.00  0.00  0.07  0.00
  GQ68                    1.00   0.02  0.00  0.00  0.98  0.00  0.00  0.00  0.89  0.00
  GQ69                    1.00   0.02  0.00  0.00  0.51  0.47  0.00  0.00  0.89  0.00
  GQ70                    1.00   0.02  0.00  0.00  0.00  0.97  0.00  0.00  0.01  0.00
  GQ71                    1.00   0.02  0.00  0.00  0.00  0.98  0.00  0.00  0.09  0.00
  GQ72                    1.00   0.02  0.00  0.00  0.00  0.98  0.00  0.00  0.36  0.00
  GQ73                    1.00   0.02  0.00  0.00  0.00  0.97  0.00  0.00  0.02  0.00
  GQ74                    1.00   0.02  0.00  0.00  0.89  0.08  0.00  0.00  0.89  0.00
  GQ75                    1.00   0.02  0.00  0.00  0.98  0.00  0.00  0.00  0.89  0.00
  GQ76                    1.00   0.02  0.00  0.00  0.00  0.98  0.00  0.00  0.35  0.00
  GQ77                    1.00   0.02  0.98  0.00  0.00  0.00  0.00  0.00  0.00  0.00
  GQ78                    1.00   0.02  0.00  0.00  0.86  0.12  0.00  0.00  0.44  0.00
  GQ79                    1.00   0.02  0.00  0.00  0.98  0.00  0.00  0.00  0.11  0.00
  GQ80                    1.00   0.02  0.00  0.00  0.98  0.00  0.00  0.00  0.17  0.00
  GQ81                    1.00   0.02  0.00  0.00  0.98  0.00  0.00  0.00  0.00  0.00
  GQ82                    1.00   0.02  0.00  0.00  0.55  0.43  0.00  0.00  0.88  0.00
  GQ83                    1.00   0.02  0.00  0.00  0.00  0.98  0.00  0.00  0.89  0.00
  GQ84                    1.00   0.02  0.00  0.00  0.34  0.64  0.00  0.00  0.66  0.00
  GQ85                    1.00   0.02  0.00  0.00  0.98  0.00  0.00  0.00  0.19  0.00
  GQ86                    1.00   0.02  0.00  0.00  0.97  0.00  0.00  0.00  0.89  0.00
  GQ87                    1.00   0.02  0.00  0.00  0.98  0.00  0.00  0.00  0.89  0.00
  GQ88                    1.00   0.02  0.00  0.00  0.65  0.32  0.00  0.00  0.89  0.00
  GQ89                    1.00   0.02  0.00  0.00  0.97  0.01  0.00  0.00  0.72  0.00
  GQ90                    1.00   0.02  0.00  0.00  0.70  0.27  0.00  0.00  0.89  0.00
  GQ91                    1.00   0.02  0.00  0.00  0.97  0.01  0.00  0.00  0.70  0.00
  GQ92                    1.00   0.02  0.00  0.00  0.89  0.08  0.00  0.00  0.04  0.00
  GQ93                    1.00   0.02  0.00  0.00  0.98  0.00  0.00  0.00  0.60  0.00
  GQ94                    1.00   0.02  0.00  0.00  0.71  0.26  0.00  0.00  0.03  0.00
  GQ95                    1.00   0.02  0.00  0.00  0.98  0.00  0.00  0.00  0.89  0.00
  GQ96                    1.00   0.02  0.00  0.00  0.98  0.00  0.00  0.00  0.18  0.00
  GQ97                    1.00   0.02  0.00  0.00  0.00  0.97  0.00  0.00  0.31  0.00
  GQ98                    1.00   0.02  0.00  0.00  0.98  0.00  0.00  0.00  0.43  0.00
  GQ99                    1.00   0.02  0.00  0.00  0.97  0.01  0.00  0.00  0.89  0.00
  GQ100                   1.00   0.02  0.00  0.00  0.00  0.97  0.00  0.00  0.00  0.00
  GQ101                   1.00   0.02  0.00  0.00  0.70  0.28  0.00  0.00  0.89  0.00
  GQ102                   1.00   0.02  0.00  0.00  0.54  0.43  0.00  0.00  0.89  0.00
  GQ103                   1.00   0.02  0.00  0.00  0.98  0.00  0.00  0.00  0.62  0.00
  GQ104                   1.00   0.02  0.00  0.00  0.52  0.46  0.00  0.00  0.70  0.00
  GQ105                   1.00   0.02  0.00  0.00  0.98  0.00  0.00  0.00  0.09  0.00
  GQ106                   1.00   0.02  0.00  0.00  0.74  0.24  0.00  0.00  0.89  0.00
  GQ107                   1.00   0.02  0.00  0.00  0.67  0.31  0.00  0.00  0.59  0.00
  GQ108                   1.00   0.02  0.00  0.00  0.98  0.00  0.00  0.00  0.14  0.00
  GQ109                   1.00   0.02  0.00  0.00  0.91  0.06  0.00  0.00  0.70  0.00
  GQ110                   1.00   0.02  0.00  0.00  0.97  0.01  0.00  0.00  0.89  0.00
  GQ111                   1.00   0.02  0.00  0.00  0.70  0.28  0.00  0.00  0.68  0.00
  GQ112                   1.00   0.02  0.00  0.00  0.00  0.97  0.00  0.00  0.87  0.00
  GQ113                   1.00   0.02  0.00  0.00  0.00  0.98  0.00  0.00  0.87  0.00
  GQ114                   1.00   0.02  0.00  0.00  0.98  0.00  0.00  0.00  0.12  0.00
  GQ115                   1.00   0.02  0.00  0.00  0.96  0.02  0.00  0.00  0.89  0.00
  GQ116                   1.00   0.02  0.00  0.00  0.98  0.00  0.00  0.00  0.89  0.00
  GQ117                   1.00   0.02  0.00  0.00  0.00  0.97  0.00  0.00  0.00  0.00
  GQ118                   1.00   0.02  0.00  0.00  0.36  0.62  0.00  0.00  0.88  0.00
  GQ119                   1.00   0.02  0.00  0.00  0.68  0.29  0.00  0.00  0.43  0.00
  GQ120                   1.00   0.02  0.06  0.00  0.92  0.00  0.00  0.00  0.00  0.00
  GQ121                   1.00   0.02  0.00  0.00  0.97  0.01  0.00  0.00  0.12  0.00
  GQ122                   1.00   0.02  0.00  0.00  0.70  0.27  0.00  0.00  0.89  0.00
  GQ123                   1.00   0.02  0.00  0.00  0.61  0.37  0.00  0.00  0.89  0.00
  GQ124                   1.00   0.02  0.00  0.00  0.97  0.01  0.00  0.00  0.89  0.00
  GQ125                   1.00   0.02  0.00  0.00  0.97  0.01  0.00  0.00  0.69  0.00
  GQ126                   1.00   0.02  0.00  0.00  0.62  0.36  0.00  0.00  0.81  0.00
  GQ127                   1.00   0.02  0.00  0.00  0.98  0.00  0.00  0.00  0.45  0.00
  GQ128                   1.00   0.02  0.00  0.00  0.58  0.40  0.00  0.00  0.65  0.00
  GQ129                   1.00   0.02  0.00  0.00  0.98  0.00  0.00  0.00  0.16  0.00
  GQ130                   1.00   0.02  0.00  0.00  0.94  0.04  0.00  0.00  0.16  0.00
  GQ131                   1.00   0.02  0.00  0.00  0.83  0.15  0.00  0.00  0.49  0.00
  
  
  *************************
  Conduit Surcharge Summary
  *************************
  
  ----------------------------------------------------------------------------
                                                           Hours        Hours 
                         --------- Hours Full --------   Above Full   Capacity
  Conduit                Both Ends  Upstream  Dnstream   Normal Flow   Limited
  ----------------------------------------------------------------------------
  GQ1                         0.01      1.46      0.01      0.01         0.01
  GQ4                         6.06      6.06      6.81      0.01         0.01
  GQ5                         2.43      2.43      6.71      0.01         0.01
  GQ6                         0.01      0.01      2.43      0.01         0.01
  GQ7                         4.22      4.22      5.17      0.01         0.01
  GQ8                         0.47      0.47      4.22      0.01         0.01
  GQ9                         0.47      0.47      7.12      0.01         0.01
  GQ10                        6.33      6.33      7.21      0.05         0.01
  GQ12                        0.01      0.01      6.53      0.01         0.01
  GQ13                        0.01      0.01      5.95      0.01         0.01
  GQ16                        0.01      1.39      0.01      0.01         0.01
  GQ18                        0.01      0.01      6.59      6.64         0.01
  GQ20                        0.01      0.01      1.98      0.01         0.01
  GQ21                        0.01      0.01      1.98      0.01         0.01
  GQ22                        0.01      0.01      1.08      0.01         0.01
  GQ23                        1.08      1.08      1.53      0.01         0.01
  GQ24                        1.70      1.70      6.98      0.01         0.01
  GQ25                        0.01      1.67      0.01      1.69         0.01
  GQ26                        0.01      0.01      1.92      0.01         0.01
  GQ27                        1.92      1.92      6.57      0.01         0.01
  GQ28                        0.01      0.01      6.75      0.01         0.01
  GQ29                        6.47      6.47      6.75      0.01         0.01
  GQ30                        6.57      6.57      6.86      0.01         0.01
  GQ31                        1.67      1.67      7.26      0.01         0.01
  GQ32                        1.11      3.02      1.11      2.53         1.11
  GQ33                        3.02      3.02      7.26      0.01         0.01
  GQ34                        0.01      0.01      3.02      0.01         0.01
  GQ35                        2.62      2.65      3.02      0.21         0.01
  GQ36                        2.57      2.66      2.57      2.83         2.57
  GQ37                        1.11      1.11      7.07      0.01         0.01
  GQ38                        0.01      0.01      7.07      0.01         0.01
  GQ39                        2.11      2.11      6.53      0.01         0.01
  GQ40                        1.11      1.11      2.11      0.01         0.01
  GQ41                        1.39      1.39      6.72      0.01         0.01
  GQ42                        4.15      4.15      6.79      0.01         0.01
  GQ43                        3.11      3.11      4.15      0.13         0.01
  GQ44                        6.37      6.37      6.59      0.01         0.01
  GQ45                        0.01      0.01      4.23      0.01         0.01
  GQ46                        4.23      4.23      6.37      0.01         0.01
  GQ47                        0.01      0.01      6.81      0.01         0.01
  GQ48                        0.01      0.01      6.92      0.01         0.01
  GQ49                        0.01      0.01      6.92      0.01         0.01
  GQ50                        0.01      0.01      2.05      0.01         0.01
  GQ51                        1.46      2.05      1.46      2.25         1.46
  GQ52                        1.14      1.14      6.47      0.97         0.96
  GQ53                        4.07      4.07      6.85      0.01         0.01
  GQ54                        0.01      0.01      6.94      0.01         0.01
  GQ55                        0.01      0.01      6.94      0.01         0.01
  GQ56                        3.96      3.97      4.22      1.09         0.91
  GQ57                        0.01      0.01      3.97      0.01         0.01
  GQ58                        0.01      0.01      6.63      0.01         0.01
  GQ59                        4.15      4.15      6.63      0.01         0.01
  GQ60                        2.40      2.40      4.17      0.01         0.01
  GQ61                        0.01      0.01      6.15      0.01         0.01
  GQ62                        0.01      0.01      6.23      0.01         0.01
  GQ63                        0.01      0.01      6.30      0.01         0.01
  GQ66                        0.01      0.01      6.33      0.01         0.01
  GQ67                        6.17      6.17      6.24      0.01         0.01
  GQ68                        0.01      0.01      6.48      0.01         0.01
  GQ69                        0.01      0.01      6.77      0.01         0.01
  GQ75                        0.01      0.01      6.47      0.01         0.01
  GQ78                        3.02      3.02      7.01      0.01         0.01
  GQ79                        0.01      0.01      7.01      0.01         0.01
  GQ80                        3.02      3.02      6.61      0.01         0.01
  GQ81                        6.53      6.61      6.53      6.67         0.05
  GQ82                        0.01      0.01      6.53      0.01         0.01
  GQ83                        0.01      0.01      1.69      0.01         0.01
  GQ84                        1.84      1.84      4.15      0.10         0.01
  GQ85                        1.84      1.84      7.31      0.01         0.01
  GQ86                        0.01      0.01      6.81      0.01         0.01
  GQ87                        0.01      0.01      6.81      0.01         0.01
  GQ88                        0.01      0.01      6.86      0.01         0.01
  GQ89                        0.01      0.01      6.56      0.01         0.01
  GQ90                        0.01      0.01      6.42      0.01         0.01
  GQ91                        0.01      0.01      6.65      0.01         0.01
  GQ92                        1.81      1.86      2.07      1.75         1.57
  GQ93                        2.07      2.07      2.90      0.01         0.01
  GQ94                        2.90      2.90      3.11      2.73         2.61
  GQ95                        0.01      0.01      6.93      0.01         0.01
  GQ96                        1.81      1.87      1.86      1.92         1.64
  GQ98                        0.01      0.01      6.76      0.01         0.01
  GQ99                        0.01      0.01      6.28      0.01         0.01
  GQ100                       0.01      1.44      0.01      1.36         0.01
  GQ101                       0.01      0.01      6.65      0.01         0.01
  GQ102                       0.01      0.01      6.75      0.01         0.01
  GQ103                       1.48      1.48      6.90      0.01         0.01
  GQ104                       1.11      1.11      6.90      0.15         0.01
  GQ105                       6.69      6.69      6.75      6.30         0.01
  GQ106                       0.01      0.01      6.74      0.01         0.01
  GQ107                       2.11      2.11      6.74      0.01         0.01
  GQ108                       6.48      6.48      6.69      0.01         0.01
  GQ109                       0.01      0.01      2.11      0.01         0.01
  GQ110                       0.01      0.01      6.47      0.01         0.01
  GQ111                       0.01      0.01      6.65      0.01         0.01
  GQ114                       0.01      0.01      6.89      0.01         0.01
  GQ116                       0.01      0.01      6.80      0.01         0.01
  GQ119                       3.47      3.47      6.97      0.01         0.01
  GQ120                       0.01      0.01      6.88      0.01         0.01
  GQ121                       6.72      6.72      6.97      0.01         0.01
  GQ122                       0.01      0.01      6.72      0.01         0.01
  GQ123                       0.01      0.01      6.75      0.01         0.01
  GQ125                       0.01      0.01      6.65      0.01         0.01
  GQ126                       0.01      0.01      6.65      0.01         0.01
  GQ127                       3.11      3.11      3.47      0.17         0.10
  GQ128                       0.01      0.01      2.73      0.01         0.01
  GQ129                       5.17      5.17      6.98      0.01         0.01
  GQ130                       6.11      6.11      7.44      0.01         0.01
  GQ131                       2.05      2.05      7.28      0.01         0.01
  

  Analysis begun on:  Wed Mar 29 19:11:40 2023
  Analysis ended on:  Wed Mar 29 19:11:57 2023
  Total elapsed time: 00:00:17