
  OWA STORM WATER MANAGEMENT MODEL - VERSION v5.1.14 (OWA 2022-07-31)
  --------------------------------------------------------------

  INP file created by DSDAConvertToSwmmTools 
  version 0.0.1 EcoVista 
  Title/Notes: 
  
  
  *********************************************************
  NOTE: The summary statistics displayed in this report are
  based on results found at every computational time step,  
  not just on results from each reporting time step.
  *********************************************************
  
  ****************
  Analysis Options
  ****************
  Flow Units ............... CMS
  Process Models:
    Rainfall/Runoff ........ YES
    RDII ................... NO
    Snowmelt ............... NO
    Groundwater ............ NO
    Flow Routing ........... YES
    Ponding Allowed ........ NO
    Water Quality .......... NO
  Infiltration Method ...... GREEN_AMPT
  Flow Routing Method ...... DYNWAVE
  Surcharge Method ......... EXTRAN
  Starting Date ............ 07/15/2020 00:00:00
  Ending Date .............. 07/15/2020 11:00:00
  Antecedent Dry Days ...... 0.0
  Report Time Step ......... 00:30:00
  Wet Time Step ............ 00:05:00
  Dry Time Step ............ 01:00:00
  Routing Time Step ........ 30.00 sec
  Variable Time Step ....... YES
  Maximum Trials ........... 8
  Number of Threads ........ 1
  Head Tolerance ........... 0.001500 m
  
  
  **************************        Volume         Depth
  Runoff Quantity Continuity     hectare-m            mm
  **************************     ---------       -------
  Total Precipitation ......       180.642        45.200
  Evaporation Loss .........         3.665         0.917
  Infiltration Loss ........        48.276        12.079
  Surface Runoff ...........       118.378        29.620
  Final Storage ............        10.763         2.693
  Continuity Error (%) .....        -0.243
  
  
  **************************        Volume        Volume
  Flow Routing Continuity        hectare-m      10^6 ltr
  **************************     ---------     ---------
  Dry Weather Inflow .......         0.000         0.000
  Wet Weather Inflow .......       117.924      1179.255
  Groundwater Inflow .......         0.000         0.000
  RDII Inflow ..............         0.000         0.000
  External Inflow ..........         0.000         0.000
  External Outflow .........        10.783       107.834
  Flooding Loss ............       105.045      1050.457
  Evaporation Loss .........         0.000         0.000
  Exfiltration Loss ........         0.000         0.000
  Initial Stored Volume ....         0.000         0.000
  Final Stored Volume ......         1.887        18.874
  Continuity Error (%) .....         0.177
  
  
  *************************
  Highest Continuity Errors
  *************************
  Node jd51 (4.60%)
  Node jd55 (3.99%)
  Node jd64 (3.73%)
  Node jd59 (3.68%)
  Node jd31 (3.46%)
  
  
  ***************************
  Time-Step Critical Elements
  ***************************
  Link GQ73 (93.09%)
  
  
  ********************************
  Highest Flow Instability Indexes
  ********************************
  Link GQ67 (17)
  Link GQ29 (8)
  Link GQ44 (6)
  Link GQ3 (4)
  Link GQ114 (4)
  
  
  *************************
  Routing Time Step Summary
  *************************
  Minimum Time Step           :     3.71 sec
  Average Time Step           :     7.79 sec
  Maximum Time Step           :    30.00 sec
  Percent in Steady State     :    -0.00
  Average Iterations per Step :     3.69
  Percent Not Converging      :     7.40
  
  
  ***************************
  Subcatchment Runoff Summary
  ***************************
  
  ------------------------------------------------------------------------------------------------------------------------------
                            Total      Total      Total      Total     Imperv       Perv      Total       Total     Peak  Runoff
                           Precip      Runon       Evap      Infil     Runoff     Runoff     Runoff      Runoff   Runoff   Coeff
  Subcatchment                 mm         mm         mm         mm         mm         mm         mm    10^6 ltr      CMS
  ------------------------------------------------------------------------------------------------------------------------------
  1                         45.20       0.00       0.55      25.32      17.96       0.00      17.96        7.11     0.38   0.397
  2                         45.20       0.00       0.99       9.62      31.45       0.00      31.45       28.44     1.55   0.696
  3                         45.20       0.00       1.02       8.25      33.20       0.00      33.20       13.29     0.71   0.735
  4                         45.20       0.00       1.06       7.08      34.57       0.00      34.57        2.90     0.15   0.765
  5                         45.20       0.00       0.93      11.51      30.52       0.00      30.52        3.77     0.20   0.675
  6                         45.20       0.00       0.89      12.95      29.32       0.00      29.32        2.72     0.14   0.649
  7                         45.20       0.00       0.93      11.56      29.93       0.00      29.93       13.05     0.71   0.662
  8                         45.20       0.00       1.18       2.53      38.25       0.00      38.25        5.33     0.29   0.846
  9                         45.20       0.00       1.22       1.26      39.54       0.00      39.54        4.63     0.25   0.875
  10                        45.20       0.00       1.05       7.35      34.05       0.00      34.05        7.67     0.41   0.753
  11                        45.20       0.00       1.13       4.32      36.56       0.00      36.56       18.13     0.98   0.809
  12                        45.20       0.00       0.89      13.00      28.95       0.00      28.95       14.12     0.76   0.640
  13                        45.20       0.00       1.12       4.87      36.11       0.00      36.11       16.33     0.88   0.799
  14                        45.20       0.00       1.12       4.93      36.31       0.00      36.31        6.85     0.37   0.803
  15                        45.20       0.00       1.03       7.95      33.45       0.00      33.45       11.31     0.61   0.740
  16                        45.20       0.00       1.07       6.57      34.61       0.00      34.61       10.22     0.55   0.766
  17                        45.20       0.00       1.00       9.02      32.48       0.00      32.48       13.59     0.73   0.719
  18                        45.20       0.00       1.15       3.56      37.25       0.00      37.25       15.38     0.83   0.824
  19                        45.20       0.00       1.15       3.72      37.05       0.00      37.05        8.33     0.45   0.820
  20                        45.20       0.00       1.14       3.97      36.50       0.00      36.50       19.59     1.06   0.807
  21                        45.20       0.00       1.21       1.33      39.22       0.00      39.22       12.31     0.66   0.868
  22                        45.20       0.00       1.19       2.13      38.43       0.00      38.43        4.73     0.26   0.850
  23                        45.20       0.00       1.10       5.53      35.34       0.00      35.34       20.23     1.10   0.782
  24                        45.20       0.00       1.06       6.90      34.08       0.00      34.08        6.04     0.33   0.754
  25                        45.20       0.00       1.13       4.24      36.84       0.00      36.84        7.46     0.40   0.815
  26                        45.20       0.00       0.97      10.31      30.91       0.00      30.91       10.85     0.59   0.684
  27                        45.20       0.00       1.16       3.38      37.03       0.00      37.03       15.65     0.85   0.819
  28                        45.20       0.00       1.18       2.49      37.99       0.00      37.99       17.96     0.97   0.840
  29                        45.20       0.00       1.06       7.01      34.44       0.00      34.44        8.04     0.43   0.762
  30                        45.20       0.00       1.21       1.53      39.58       0.00      39.58        2.84     0.15   0.876
  31                        45.20       0.00       1.23       0.95      39.65       0.00      39.65        8.74     0.47   0.877
  32                        45.20       0.00       1.20       2.01      38.61       0.00      38.61       16.69     0.90   0.854
  33                        45.20       0.00       1.21       1.47      39.00       0.00      39.00       13.74     0.74   0.863
  34                        45.20       0.00       1.12       4.58      36.37       0.00      36.37       10.66     0.57   0.805
  35                        45.20       0.00       1.16       3.41      37.39       0.00      37.39       15.51     0.84   0.827
  36                        45.20       0.00       0.95      10.77      30.96       0.00      30.96       12.18     0.65   0.685
  37                        45.20       0.00       1.18       2.44      38.24       0.00      38.24        8.49     0.46   0.846
  38                        45.20       0.00       1.11       5.12      35.94       0.00      35.94       13.71     0.74   0.795
  39                        45.20       0.00       1.00       8.99      32.56       0.00      32.56       13.75     0.74   0.720
  40                        45.20       0.00       1.12       4.89      36.12       0.00      36.12        8.26     0.45   0.799
  41                        45.20       0.00       1.14       3.98      37.12       0.00      37.12        7.32     0.39   0.821
  42                        45.20       0.00       1.14       4.02      36.56       0.00      36.56        9.03     0.49   0.809
  43                        45.20       0.00       0.96      10.57      30.81       0.00      30.81       24.36     1.32   0.682
  44                        45.20       0.00       1.02       8.24      32.90       0.00      32.90       15.90     0.86   0.728
  45                        45.20       0.00       0.96      10.48      31.00       0.00      31.00       22.43     1.21   0.686
  46                        45.20       0.00       0.93      11.68      30.24       0.00      30.24       15.12     0.81   0.669
  47                        45.20       0.00       0.97      10.00      31.43       0.00      31.43       36.65     1.98   0.695
  48                        45.20       0.00       1.17       3.13      37.20       0.00      37.20       21.59     1.17   0.823
  49                        45.20       0.00       1.07       6.70      34.07       0.00      34.07       23.07     1.25   0.754
  50                        45.20       0.00       1.18       2.55      37.41       0.00      37.41       14.71     0.80   0.828
  51                        45.20       0.00       1.13       4.39      35.89       0.00      35.89        6.72     0.37   0.794
  52                        45.20       0.00       0.55      25.36      18.06       0.00      18.06       18.54     0.98   0.400
  53                        45.20       0.00       0.80      16.46      25.96       0.00      25.96       27.65     1.48   0.574
  54                        45.20       0.00       0.98       9.73      31.86       0.00      31.86        7.77     0.42   0.705
  55                        45.20       0.00       0.56      24.89      18.46       0.00      18.46       14.57     0.77   0.409
  56                        45.20       0.00       0.21      37.54       7.10       0.00       7.10        5.78     0.30   0.157
  57                        45.20       0.00       1.11       5.03      35.54       0.00      35.54       29.53     1.60   0.786
  58                        45.20       0.00       1.03       7.98      33.41       0.00      33.41        5.50     0.30   0.739
  59                        45.20       0.00       1.01       8.87      32.94       0.00      32.94        4.19     0.22   0.729
  60                        45.20       0.00       0.38      31.59      12.48       0.00      12.48        3.57     0.19   0.276
  61                        45.20       0.00       0.59      24.03      19.10       0.00      19.10        7.20     0.39   0.423
  62                        45.20       0.00       0.82      15.73      26.30       0.00      26.30       30.83     1.66   0.582
  63                        45.20       0.00       1.11       4.98      35.37       0.00      35.37       68.41     3.73   0.783
  64                        45.20       0.00       0.83      15.20      26.98       0.00      26.98        5.79     0.31   0.597
  65                        45.20       0.00       1.13       4.41      35.95       0.00      35.95       24.18     1.32   0.795
  66                        45.20       0.00       0.89      13.07      28.60       0.00      28.60        7.29     0.39   0.633
  67                        45.20       0.00       0.83      15.17      27.08       0.00      27.08        8.75     0.47   0.599
  68                        45.20       0.00       1.00       9.18      32.45       0.00      32.45        3.61     0.19   0.718
  69                        45.20       0.00       0.59      24.06      19.32       0.00      19.32        6.18     0.33   0.427
  70                        45.20       0.00       0.82      15.45      26.68       0.00      26.68       21.95     1.18   0.590
  71                        45.20       0.00       1.02       8.45      33.08       0.00      33.08        4.06     0.22   0.732
  72                        45.20       0.00       1.07       6.45      34.86       0.00      34.86        4.34     0.23   0.771
  73                        45.20       0.00       0.97      10.09      31.77       0.00      31.77        5.28     0.28   0.703
  74                        45.20       0.00       0.93      11.74      30.23       0.00      30.23        6.51     0.35   0.669
  75                        45.20       0.00       1.03       8.01      33.51       0.00      33.51        4.83     0.26   0.741
  76                        45.20       0.00       1.08       6.07      35.32       0.00      35.32        3.42     0.18   0.781
  77                        45.20       0.00       1.16       3.48      37.46       0.00      37.46        4.05     0.22   0.829
  78                        45.20       0.00       1.11       4.95      36.08       0.00      36.08        3.96     0.21   0.798
  79                        45.20       0.00       0.49      27.54      16.08       0.00      16.08       17.05     0.91   0.356
  80                        45.20       0.00       0.92      11.93      29.69       0.00      29.69       18.58     1.00   0.657
  81                        45.20       0.00       0.94      11.40      30.09       0.00      30.09       13.12     0.71   0.666
  82                        45.20       0.00       0.90      12.83      28.84       0.00      28.84       26.44     1.43   0.638
  83                        45.20       0.00       1.12       4.74      36.42       0.00      36.42        4.45     0.24   0.806
  84                        45.20       0.00       1.06       7.02      34.23       0.00      34.23        4.09     0.22   0.757
  85                        45.20       0.00       1.24       0.34      40.49       0.00      40.49        3.77     0.20   0.896
  86                        45.20       0.00       1.15       3.81      37.16       0.00      37.16        5.47     0.29   0.822
  87                        45.20       0.00       1.22       0.97      39.56       0.00      39.56        5.20     0.28   0.875
  88                        45.20       0.00       1.10       5.64      35.65       0.00      35.65        3.41     0.18   0.789
  89                        45.20       0.00       1.15       3.63      37.41       0.00      37.41        7.20     0.39   0.828
  90                        45.20       0.00       1.25       0.01      41.00       0.00      41.00        0.47     0.03   0.907
  91                        45.20       0.00       1.04       7.57      33.31       0.00      33.31        7.26     0.39   0.737
  92                        45.20       0.00       1.15       3.52      37.44       0.00      37.44        4.68     0.25   0.828
  93                        45.20       0.00       0.94      11.23      30.44       0.00      30.44       15.58     0.84   0.674
  94                        45.20       0.00       0.85      14.64      27.82       0.00      27.82        1.95     0.10   0.615
  95                        45.20       0.00       1.25       0.05      40.74       0.00      40.74        0.89     0.05   0.901
  96                        45.20       0.00       1.01       8.75      32.88       0.00      32.88        4.02     0.22   0.728
  97                        45.20       0.00       1.23       0.96      39.77       0.00      39.77        3.95     0.21   0.880
  98                        45.20       0.00       1.02       8.54      33.12       0.00      33.12        4.08     0.22   0.733
  99                        45.20       0.00       0.50      27.04      16.56       0.00      16.56        6.15     0.33   0.366
  100                       45.20       0.00       0.56      25.01      18.42       0.00      18.42        4.72     0.25   0.407
  101                       45.20       0.00       0.57      24.52      18.74       0.00      18.74        9.18     0.49   0.415
  102                       45.20       0.00       0.93      11.49      30.31       0.00      30.31        7.39     0.40   0.671
  103                       45.20       0.00       0.31      33.93      10.43       0.00      10.43        3.79     0.20   0.231
  104                       45.20       0.00       0.21      37.58       7.03       0.00       7.03        6.81     0.36   0.156
  105                       45.20       0.00       1.03       8.03      33.57       0.00      33.57        4.39     0.24   0.743
  106                       45.20       0.00       0.56      25.06      18.33       0.00      18.33        4.47     0.24   0.406
  
  
  ******************
  Node Depth Summary
  ******************
  
  ---------------------------------------------------------------------------------
                                 Average  Maximum  Maximum  Time of Max    Reported
                                   Depth    Depth      HGL   Occurrence   Max Depth
  Node                 Type       Meters   Meters   Meters  days hr:min      Meters
  ---------------------------------------------------------------------------------
  jd1                  JUNCTION     0.13     0.17   273.17     0  09:00        0.17
  jd2                  JUNCTION     0.37     0.59   267.59     0  09:00        0.59
  jd3                  JUNCTION     2.67     3.00   266.00     0  03:51        3.00
  jd4                  JUNCTION     2.46     3.00   270.00     0  04:19        3.00
  jd5                  JUNCTION     0.09     0.12   274.12     0  09:00        0.12
  jd6                  JUNCTION     0.11     0.15   275.15     0  09:00        0.15
  jd7                  JUNCTION     0.37     0.45   264.55     0  09:00        0.45
  jd8                  JUNCTION     2.51     3.00   267.00     0  04:09        3.00
  jd9                  JUNCTION     2.42     3.00   268.00     0  04:09        3.00
  jd10                 JUNCTION     2.69     3.00   273.00     0  03:44        3.00
  jd11                 JUNCTION     0.10     0.13   282.13     0  09:00        0.13
  jd12                 JUNCTION     2.70     3.00   272.00     0  03:39        3.00
  jd13                 JUNCTION     0.12     0.16   289.16     0  09:00        0.16
  jd14                 JUNCTION     0.28     0.39   280.39     0  09:00        0.39
  jd15                 JUNCTION     0.28     0.38   278.38     0  09:00        0.38
  jd16                 JUNCTION     0.31     0.42   274.42     0  09:00        0.42
  jd17                 JUNCTION     2.62     3.00   278.80     0  04:05        3.00
  jd18                 JUNCTION     0.31     0.48   279.48     0  09:00        0.48
  jd19                 JUNCTION     1.98     3.00   270.00     0  04:14        3.00
  jd20                 JUNCTION     0.21     0.26   273.26     0  09:00        0.26
  jd21                 JUNCTION     2.67     3.00   273.00     0  03:49        3.00
  jd22                 JUNCTION     2.20     3.00   275.00     0  04:23        3.00
  jd23                 JUNCTION     0.24     0.33   278.33     0  09:00        0.33
  jd24                 JUNCTION     0.15     0.19   285.19     0  09:00        0.19
  jd25                 JUNCTION     0.24     0.32   279.32     0  09:00        0.32
  jd26                 JUNCTION     0.28     0.39   285.39     0  09:00        0.39
  jd27                 JUNCTION     0.22     0.31   291.31     0  09:00        0.31
  jd28                 JUNCTION     2.72     3.00   290.00     0  03:33        3.00
  jd29                 JUNCTION     0.10     0.13   299.13     0  09:00        0.13
  jd30                 JUNCTION     0.13     0.19   290.19     0  09:00        0.19
  jd31                 JUNCTION     0.98     3.00   275.00     0  04:05        1.21
  jd32                 JUNCTION     2.71     3.00   275.00     0  03:38        3.00
  jd33                 JUNCTION     0.20     0.26   289.26     0  09:00        0.26
  jd34                 JUNCTION     0.23     0.30   294.30     0  09:00        0.30
  jd35                 JUNCTION     2.74     3.00   292.00     0  03:25        3.00
  jd36                 JUNCTION     0.44     3.00   302.00     0  08:45        2.04
  jd37                 JUNCTION     0.34     0.53   303.53     0  09:00        0.53
  jd38                 JUNCTION     0.40     0.59   297.59     0  09:00        0.59
  jd39                 JUNCTION     2.68     3.00   297.00     0  03:50        3.00
  jd40                 JUNCTION     1.93     3.00   302.00     0  04:26        3.00
  jd41                 JUNCTION     2.61     3.00   296.00     0  04:14        3.00
  jd42                 JUNCTION     0.20     0.27   305.27     0  09:00        0.27
  jd43                 JUNCTION     1.61     3.00   300.00     0  04:23        3.00
  jd44                 JUNCTION     1.70     3.00   286.00     0  04:27        3.00
  jd45                 JUNCTION     2.70     3.00   282.00     0  03:44        3.00
  jd46                 JUNCTION     0.29     0.39   275.39     0  09:00        0.39
  jd47                 JUNCTION     0.16     0.21   315.21     0  09:00        0.21
  jd48                 JUNCTION     0.11     0.15   325.15     0  09:00        0.15
  jd49                 JUNCTION     0.27     0.36   289.36     0  09:00        0.36
  jd50                 JUNCTION     2.73     3.00   278.00     0  03:31        3.00
  jd51                 JUNCTION     2.59     3.00   313.00     0  04:16        3.00
  jd52                 JUNCTION     0.43     0.64   323.64     0  09:01        0.64
  jd53                 JUNCTION     0.50     1.13   323.13     0  09:04        1.10
  jd54                 JUNCTION     0.30     0.39   326.39     0  09:00        0.39
  jd55                 JUNCTION     1.44     2.74   324.74     0  04:13        1.85
  jd56                 JUNCTION     0.19     0.27   327.27     0  09:00        0.27
  jd59                 JUNCTION     2.57     3.00   320.80     0  04:19        3.00
  jd60                 JUNCTION     2.71     3.00   319.00     0  03:38        3.00
  jd61                 JUNCTION     0.15     0.20   329.20     0  09:00        0.20
  jd62                 JUNCTION     0.07     0.09   335.09     0  09:00        0.09
  jd63                 JUNCTION     0.07     0.10   324.10     0  09:00        0.10
  jd64                 JUNCTION     2.40     3.00   321.00     0  04:19        2.83
  jd65                 JUNCTION     2.60     3.00   307.00     0  04:08        3.00
  jd66                 JUNCTION     2.69     3.00   304.00     0  03:46        3.00
  jd69                 JUNCTION     0.24     0.32   333.32     0  09:00        0.32
  jd79                 JUNCTION     2.71     3.00   274.00     0  03:35        3.00
  jd80                 JUNCTION     2.64     3.00   279.00     0  03:57        3.00
  jd81                 JUNCTION     0.15     0.20   288.20     0  09:00        0.20
  jd83                 JUNCTION     2.75     3.00   323.00     0  03:22        3.00
  jd84                 JUNCTION     0.25     0.34   323.34     0  09:00        0.34
  jd85                 JUNCTION     2.69     3.00   324.00     0  03:44        3.00
  jd87                 JUNCTION     2.70     3.00   322.00     0  03:41        3.00
  jd89                 JUNCTION     0.16     0.22   324.22     0  09:00        0.22
  jd90                 JUNCTION     0.14     0.19   328.19     0  09:00        0.19
  jd92                 JUNCTION     0.15     0.19   326.19     0  09:00        0.19
  jd93                 JUNCTION     0.46     0.67   324.67     0  08:59        0.67
  jd94                 JUNCTION     0.26     0.35   326.55     0  09:00        0.35
  jd95                 JUNCTION     0.35     0.47   327.47     0  09:00        0.47
  jd96                 JUNCTION     2.72     3.00   308.00     0  03:37        3.00
  jd97                 JUNCTION     0.35     0.47   327.67     0  09:00        0.47
  jd98                 JUNCTION     0.20     0.26   329.26     0  09:00        0.26
  jd99                 JUNCTION     2.68     3.00   327.00     0  03:47        3.00
  jd101                JUNCTION     0.12     0.15   321.15     0  09:00        0.15
  jd102                JUNCTION     0.24     0.33   324.33     0  09:00        0.33
  jd103                JUNCTION     0.12     0.15   318.15     0  09:00        0.15
  jd106                JUNCTION     2.62     3.00   287.00     0  04:05        3.00
  jd107                JUNCTION     0.22     0.29   332.29     0  09:00        0.29
  jd108                JUNCTION     1.13     1.31   327.31     0  09:00        1.31
  jd109                JUNCTION     0.17     0.23   343.23     0  09:00        0.23
  jd110                JUNCTION     2.70     3.00   327.00     0  03:44        3.00
  jd111                JUNCTION     0.08     0.10   344.10     0  09:00        0.10
  jd112                JUNCTION     0.10     0.13   334.13     0  09:00        0.13
  jd113                JUNCTION     0.11     0.14   348.14     0  09:00        0.14
  jd114                JUNCTION     2.70     3.00   317.00     0  03:43        3.00
  jd117                JUNCTION     1.16     3.00   319.00     0  03:50        1.52
  jd118                JUNCTION     0.10     0.13   330.13     0  09:00        0.13
  jd120                JUNCTION     0.17     0.22   327.22     0  09:00        0.22
  jd121                JUNCTION     0.17     0.22   320.22     0  09:00        0.22
  jd122                JUNCTION     2.67     3.00   276.00     0  03:49        3.00
  jd123                JUNCTION     2.66     3.00   276.20     0  03:52        3.00
  jd124                JUNCTION     2.76     3.00   271.00     0  03:16        3.00
  jd125                JUNCTION     2.25     3.00   278.00     0  04:17        3.00
  jd126                JUNCTION     2.75     3.00   275.00     0  03:24        3.00
  jd135                JUNCTION     0.14     0.19   289.19     0  09:00        0.19
  jd136                JUNCTION     0.27     0.36   341.36     0  09:00        0.36
  psk1                 OUTFALL      0.10     0.13   279.13     0  09:00        0.13
  psk2                 OUTFALL      0.13     0.18   270.18     0  09:00        0.18
  psk3                 OUTFALL      0.31     0.42   271.42     0  09:00        0.42
  psk4                 OUTFALL      0.00     0.00   280.00     0  00:00        0.00
  psk5                 OUTFALL      0.13     0.17   263.17     0  09:00        0.17
  psk6                 OUTFALL      0.09     0.12   259.12     0  09:00        0.12
  psk7                 OUTFALL      0.37     0.45   262.45     0  09:00        0.45
  psk8                 OUTFALL      0.00     0.00   317.00     0  00:00        0.00
  
  
  *******************
  Node Inflow Summary
  *******************
  
  -------------------------------------------------------------------------------------------------
                                  Maximum  Maximum                  Lateral       Total        Flow
                                  Lateral    Total  Time of Max      Inflow      Inflow     Balance
                                   Inflow   Inflow   Occurrence      Volume      Volume       Error
  Node                 Type           CMS      CMS  days hr:min    10^6 ltr    10^6 ltr     Percent
  -------------------------------------------------------------------------------------------------
  jd1                  JUNCTION     0.380    0.614     0  09:00        7.08        11.4       0.488
  jd2                  JUNCTION     0.589    0.804     0  09:00        10.8        14.8       0.707
  jd3                  JUNCTION     0.706    2.015     0  09:00          13        40.3       1.006
  jd4                  JUNCTION     0.850    0.950     0  09:00        15.6        17.4       1.618
  jd5                  JUNCTION     0.249    0.427     0  09:00        4.61        7.99       0.237
  jd6                  JUNCTION     0.287    0.287     0  09:00        5.31        5.31       0.313
  jd7                  JUNCTION     0.145    1.747     0  09:00        2.71        37.8       0.375
  jd8                  JUNCTION     0.201    1.147     0  09:00        3.76        26.5       0.930
  jd9                  JUNCTION     0.155    1.222     0  09:00        2.89        25.9       0.835
  jd10                 JUNCTION     0.412    0.523     0  09:00        7.64        9.71       1.054
  jd11                 JUNCTION     0.608    0.608     0  09:00        11.3        11.3       0.395
  jd12                 JUNCTION     0.458    0.997     0  09:00        8.45        18.3       0.759
  jd13                 JUNCTION     0.830    0.830     0  09:00        15.3        15.3       0.302
  jd14                 JUNCTION     0.973    1.096     0  09:00        17.9        20.1       0.501
  jd15                 JUNCTION     0.401    0.893     0  09:00        7.43        16.2       1.306
  jd16                 JUNCTION     0.431    1.684     0  09:00        8.01        30.6       0.553
  jd17                 JUNCTION     0.901    2.136     0  09:00        16.6        40.8       1.960
  jd18                 JUNCTION     0.714    1.039     0  09:00        13.2        19.2       0.818
  jd19                 JUNCTION     0.663    1.230     0  09:00        12.3        23.9       0.520
  jd20                 JUNCTION     0.551    0.781     0  09:00        10.2        16.1       0.632
  jd21                 JUNCTION     0.256    1.985     0  09:00        4.71        39.2       0.868
  jd22                 JUNCTION     0.450    0.976     0  09:00         8.3        18.5       0.452
  jd23                 JUNCTION     0.445    1.242     0  09:00        8.23        22.8       0.427
  jd24                 JUNCTION     0.731    0.731     0  09:00        13.5        13.5       0.382
  jd25                 JUNCTION     0.575    0.833     0  09:00        10.6        15.4       0.575
  jd26                 JUNCTION     0.837    1.416     0  09:00        15.5        25.8       0.532
  jd27                 JUNCTION     0.861    1.480     0  09:00        15.8        26.7       0.475
  jd28                 JUNCTION     1.174    1.657     0  09:00        21.5        30.4       0.448
  jd29                 JUNCTION     0.471    0.471     0  09:00        8.71        8.71       0.258
  jd30                 JUNCTION     0.490    1.548     0  09:00        8.99        25.8       0.294
  jd31                 JUNCTION     0.327    0.807     0  04:05        6.02        12.9       3.587
  jd32                 JUNCTION     0.665    2.693     0  09:00        12.3        54.9       0.465
  jd33                 JUNCTION     0.655    1.087     0  09:00        12.1        20.2       0.320
  jd34                 JUNCTION     0.810    0.810     0  09:00        15.1        15.1       0.264
  jd35                 JUNCTION     0.739    2.485     0  08:45        13.7        47.1       0.282
  jd36                 JUNCTION     1.254    2.028     0  08:45          23        37.6       0.593
  jd37                 JUNCTION     1.318    1.318     0  09:00        24.3        24.3       0.394
  jd38                 JUNCTION     1.211    2.064     0  09:00        22.3        36.9       0.791
  jd39                 JUNCTION     0.839    3.192     0  09:00        15.5        65.7       0.787
  jd40                 JUNCTION     1.430    3.614     0  09:00        26.3        64.2       0.776
  jd41                 JUNCTION     1.004    3.821     0  09:00        18.5        75.5       2.904
  jd42                 JUNCTION     1.317    1.444     0  09:00        24.1        26.5       0.577
  jd43                 JUNCTION     1.479    2.648     0  09:00        27.5        48.6       0.932
  jd44                 JUNCTION     1.979    4.242     0  09:00        36.5        87.5       0.779
  jd45                 JUNCTION     0.803    3.028     0  09:00        14.6        60.8       0.543
  jd46                 JUNCTION     0.366    0.366     0  09:00        6.69        6.69       1.750
  jd47                 JUNCTION     1.182    1.182     0  09:00        21.9        21.9       0.424
  jd48                 JUNCTION     0.327    0.327     0  09:00        6.16        6.16       0.435
  jd49                 JUNCTION     1.605    1.605     0  09:00        29.4        29.4       0.485
  jd50                 JUNCTION     1.665    3.930     0  09:00        30.7        80.4       0.542
  jd51                 JUNCTION     0.348    1.603     0  09:00        6.48        29.7       4.822
  jd52                 JUNCTION     0.710    2.868     0  09:00        13.1        51.4       0.709
  jd53                 JUNCTION     0.395    2.182     0  08:48        7.24        39.7       0.421
  jd54                 JUNCTION     0.212    1.056     0  09:00        3.94        19.6       0.587
  jd55                 JUNCTION     0.387    1.306     0  09:00        7.18        23.7       4.155
  jd56                 JUNCTION     0.235    0.688     0  09:00        4.37        12.8       0.485
  jd59                 JUNCTION     0.233    1.158     0  09:00        4.33          21       3.825
  jd60                 JUNCTION     0.418    0.886     0  09:00        7.74        16.5       0.787
  jd61                 JUNCTION     0.469    0.527     0  09:00        8.72        9.82       0.352
  jd62                 JUNCTION     0.189    0.189     0  09:00        3.56        3.56       0.184
  jd63                 JUNCTION     0.259    0.259     0  09:00        4.81        4.81       0.257
  jd64                 JUNCTION     0.218    0.562     0  04:19        4.04        9.97       3.878
  jd65                 JUNCTION     3.729    3.729     0  09:00        68.1        68.1       0.311
  jd66                 JUNCTION     0.489    1.420     0  09:00        9.15        26.5       1.213
  jd69                 JUNCTION     0.905    0.930     0  09:00          17        17.5       0.490
  jd79                 JUNCTION     0.881    1.654     0  09:00        16.3          30       0.590
  jd80                 JUNCTION     0.978    1.240     0  09:00        18.1        23.4       0.656
  jd81                 JUNCTION     0.743    0.743     0  09:00        13.7        13.7       0.135
  jd83                 JUNCTION     0.775    0.972     0  09:00        14.5        18.8       0.452
  jd84                 JUNCTION     0.985    0.985     0  09:00        18.5        18.5       0.387
  jd85                 JUNCTION     0.224    0.367     0  09:00        4.18        6.86       1.243
  jd87                 JUNCTION     0.183    0.442     0  09:00        3.41        8.21       0.909
  jd89                 JUNCTION     0.214    0.214     0  09:00        3.95        3.95       0.511
  jd90                 JUNCTION     0.218    0.218     0  09:00        4.04        4.04       0.381
  jd92                 JUNCTION     0.183    0.183     0  09:00         3.4         3.4       0.282
  jd93                 JUNCTION     0.394    0.852     0  09:00        7.26        15.7       0.639
  jd94                 JUNCTION     0.025    0.458     0  09:00       0.469        8.46       0.698
  jd95                 JUNCTION     0.048    0.433     0  09:00       0.886        8.04       0.667
  jd96                 JUNCTION     0.357    0.476     0  09:00        6.79        8.99       1.078
  jd97                 JUNCTION     0.386    0.386     0  09:00        7.17        7.17       0.193
  jd98                 JUNCTION     0.215    0.215     0  09:00           4           4       0.322
  jd99                 JUNCTION     0.104    0.307     0  09:00        1.94        6.27       0.917
  jd101                JUNCTION     0.282    0.563     0  09:00        5.26        10.4       0.332
  jd102                JUNCTION     0.281    0.281     0  09:00        5.18        5.18       0.443
  jd103                JUNCTION     0.194    0.194     0  09:00        3.59        3.59       0.154
  jd106                JUNCTION     0.151    0.905     0  09:00        2.83        16.3       2.422
  jd107                JUNCTION     0.219    0.718     0  09:00        4.07        13.3       0.567
  jd108                JUNCTION     0.238    0.238     0  09:00        4.46        4.48       1.487
  jd109                JUNCTION     0.397    0.397     0  09:00        7.36        7.36       0.145
  jd110                JUNCTION     0.302    0.450     0  09:00        5.76        8.53       1.817
  jd111                JUNCTION     0.250    0.250     0  09:00        4.71        4.71       0.308
  jd112                JUNCTION     0.295    0.819     0  09:00        5.45        15.3       0.239
  jd113                JUNCTION     0.198    0.198     0  09:00        3.78        3.78       0.105
  jd114                JUNCTION     0.239    3.077     0  04:55        4.43        57.4       0.556
  jd117                JUNCTION     0.220    0.723     0  09:00        4.07        13.5       1.177
  jd118                JUNCTION     0.202    0.202     0  09:00        3.75        3.75       0.079
  jd120                JUNCTION     0.252    0.252     0  09:00        4.66        4.66       0.252
  jd121                JUNCTION     0.311    0.311     0  09:00        5.77        5.77       0.307
  jd122                JUNCTION     0.738    2.897     0  09:00        13.7        55.3       1.022
  jd123                JUNCTION     0.759    2.650     0  09:00        14.1        54.4       1.294
  jd124                JUNCTION     1.095    2.168     0  09:00        20.2        46.4       0.135
  jd125                JUNCTION     1.064    2.739     0  09:00        19.5        58.8       0.694
  jd126                JUNCTION     1.546    2.149     0  09:00        28.3        39.6       0.263
  jd135                JUNCTION     0.393    0.393     0  09:00        7.29        7.29       0.226
  jd136                JUNCTION     0.326    0.524     0  09:00        6.12         9.9       0.592
  psk1                 OUTFALL      0.000    0.391     0  09:00           0        7.26       0.000
  psk2                 OUTFALL      0.000    1.143     0  09:00           0          19       0.000
  psk3                 OUTFALL      0.000    1.682     0  09:00           0        30.4       0.000
  psk4                 OUTFALL      0.000    0.000     0  00:00           0           0       0.000 ltr
  psk5                 OUTFALL      0.000    0.398     0  09:00           0        7.38       0.000
  psk6                 OUTFALL      0.000    0.328     0  09:00           0        6.11       0.000
  psk7                 OUTFALL      0.000    1.747     0  09:00           0        37.7       0.000
  psk8                 OUTFALL      0.000    0.000     0  00:00           0           0       0.000 ltr
  
  
  **********************
  Node Surcharge Summary
  **********************
  
  Surcharging occurs when water rises above the top of the highest conduit.
  ---------------------------------------------------------------------
                                               Max. Height   Min. Depth
                                   Hours       Above Crown    Below Rim
  Node                 Type      Surcharged         Meters       Meters
  ---------------------------------------------------------------------
  jd3                  JUNCTION        7.15          2.200        0.000
  jd4                  JUNCTION        6.68          2.200        0.000
  jd8                  JUNCTION        7.04          2.200        0.000
  jd9                  JUNCTION        6.85          2.200        0.000
  jd10                 JUNCTION        7.26          2.400        0.000
  jd12                 JUNCTION        7.34          2.400        0.000
  jd17                 JUNCTION        6.91          2.200        0.000
  jd19                 JUNCTION        5.87          2.200        0.000
  jd21                 JUNCTION        7.18          2.200        0.000
  jd22                 JUNCTION        6.99          2.400        0.000
  jd28                 JUNCTION        7.45          2.400        0.000
  jd31                 JUNCTION        6.90          2.200        0.000
  jd32                 JUNCTION        7.36          2.200        0.000
  jd35                 JUNCTION        7.58          2.400        0.000
  jd36                 JUNCTION        0.48          2.400        0.000
  jd39                 JUNCTION        7.16          2.000        0.000
  jd40                 JUNCTION        4.94          2.200        0.000
  jd41                 JUNCTION        6.77          1.000        0.000
  jd43                 JUNCTION        3.63          2.200        0.000
  jd44                 JUNCTION        4.55          2.000        0.000
  jd45                 JUNCTION        7.26          2.000        0.000
  jd50                 JUNCTION        7.48          2.200        0.000
  jd51                 JUNCTION        6.73          1.350        0.000
  jd55                 JUNCTION        5.31          1.237        0.263
  jd59                 JUNCTION        6.68          1.500        0.000
  jd60                 JUNCTION        7.36          2.400        0.000
  jd64                 JUNCTION        6.69          1.800        0.000
  jd65                 JUNCTION        6.87          2.400        0.000
  jd66                 JUNCTION        7.23          2.200        0.000
  jd79                 JUNCTION        7.41          2.400        0.000
  jd80                 JUNCTION        7.04          2.400        0.000
  jd83                 JUNCTION        7.63          2.400        0.000
  jd85                 JUNCTION        7.27          2.400        0.000
  jd87                 JUNCTION        7.31          2.400        0.000
  jd96                 JUNCTION        7.39          2.200        0.000
  jd99                 JUNCTION        7.21          2.400        0.000
  jd106                JUNCTION        6.91          2.000        0.000
  jd108                JUNCTION        7.34          0.308        1.692
  jd110                JUNCTION        7.26          2.000        0.000
  jd114                JUNCTION        7.29          2.000        0.000
  jd117                JUNCTION        7.16          2.200        0.000
  jd122                JUNCTION        7.19          2.200        0.000
  jd123                JUNCTION        7.13          2.200        0.000
  jd124                JUNCTION        7.73          2.400        0.000
  jd125                JUNCTION        6.71          2.200        0.000
  jd126                JUNCTION        7.60          2.400        0.000
  
  
  *********************
  Node Flooding Summary
  *********************
  
  Flooding refers to all water that overflows a node, whether it ponds or not.
  --------------------------------------------------------------------------
                                                             Total   Maximum
                                 Maximum   Time of Max       Flood    Ponded
                        Hours       Rate    Occurrence      Volume     Depth
  Node                 Flooded       CMS   days hr:min    10^6 ltr    Meters
  --------------------------------------------------------------------------
  jd3                     7.15     2.015      0  09:00      39.877     0.000
  jd4                     5.50     0.440      0  09:00       4.586     0.000
  jd8                     5.04     0.117      0  04:09       1.375     0.000
  jd9                     4.85     0.344      0  04:09       2.961     0.000
  jd10                    7.26     0.523      0  09:00       9.608     0.000
  jd12                    7.34     0.997      0  09:00      18.198     0.000
  jd17                    6.91     1.307      0  09:00      19.020     0.000
  jd19                    1.78     0.305      0  04:14       0.747     0.000
  jd21                    6.91     1.985      0  09:00      38.572     0.000
  jd22                    1.88     0.152      0  09:00       0.695     0.000
  jd28                    7.44     1.657      0  09:00      30.226     0.000
  jd31                    0.01     0.654      0  04:05       0.005     0.000
  jd32                    7.36     2.693      0  09:00      54.602     0.000
  jd35                    7.58     2.482      0  08:45      47.016     0.000
  jd36                    0.01     0.164      0  08:45       0.001     0.000
  jd39                    7.15     3.192      0  09:00      65.228     0.000
  jd40                    3.06     1.053      0  09:00       5.857     0.000
  jd41                    6.77     3.821      0  09:00      73.329     0.000
  jd43                    2.80     0.816      0  09:00       4.998     0.000
  jd44                    1.66     0.851      0  04:27       1.347     0.000
  jd45                    7.26     3.028      0  09:00      60.521     0.000
  jd50                    7.48     3.930      0  09:00      79.968     0.000
  jd51                    6.73     1.603      0  09:00      28.314     0.000
  jd59                    6.68     1.158      0  09:00      20.229     0.000
  jd60                    7.36     0.886      0  09:00      16.346     0.000
  jd64                    0.02     0.536      0  04:19       0.021     0.000
  jd65                    6.87     2.636      0  09:00      39.641     0.000
  jd66                    7.23     1.420      0  09:00      26.210     0.000
  jd79                    7.23     1.424      0  09:00      23.969     0.000
  jd80                    6.92     1.082      0  09:00      18.823     0.000
  jd83                    7.63     0.972      0  09:00      18.724     0.000
  jd85                    7.27     0.367      0  09:00       6.779     0.000
  jd87                    7.30     0.442      0  09:00       8.140     0.000
  jd96                    7.39     0.476      0  09:00       8.897     0.000
  jd99                    7.21     0.307      0  09:00       6.214     0.000
  jd106                   6.90     0.905      0  09:00      15.888     0.000
  jd110                   7.26     0.450      0  09:00       8.383     0.000
  jd114                   7.17     3.077      0  04:55      56.999     0.000
  jd117                   0.01     0.293      0  03:50       0.002     0.000
  jd122                   7.13     2.897      0  09:00      54.628     0.000
  jd123                   7.13     2.336      0  09:00      45.653     0.000
  jd124                   7.73     2.168      0  09:00      46.376     0.000
  jd125                   2.73     0.592      0  04:17       2.062     0.000
  jd126                   7.60     2.149      0  09:00      39.533     0.000
  
  
  ***********************
  Outfall Loading Summary
  ***********************
  
  -----------------------------------------------------------
                         Flow       Avg       Max       Total
                         Freq      Flow      Flow      Volume
  Outfall Node           Pcnt       CMS       CMS    10^6 ltr
  -----------------------------------------------------------
  psk1                  96.24     0.264     0.391       7.260
  psk2                  95.45     0.703     1.143      18.999
  psk3                  96.69     1.108     1.682      30.422
  psk4                   0.00     0.000     0.000       0.000
  psk5                  95.47     0.272     0.398       7.380
  psk6                  95.53     0.224     0.328       6.111
  psk7                  95.34     1.381     1.747      37.661
  psk8                   0.00     0.000     0.000       0.000
  -----------------------------------------------------------
  System                71.84     3.953     0.000     107.834
  
  
  ********************
  Link Flow Summary
  ********************
  
  -----------------------------------------------------------------------------
                                 Maximum  Time of Max   Maximum    Max/    Max/
                                  |Flow|   Occurrence   |Veloc|    Full    Full
  Link                 Type          CMS  days hr:min     m/sec    Flow   Depth
  -----------------------------------------------------------------------------
  GQ1                  CONDUIT     0.234     0  09:00      1.85    0.61    0.46
  GQ2                  CONDUIT     0.657     0  09:00      2.24    0.31    0.40
  GQ3                  CONDUIT     0.391     0  09:00      5.39    0.01    0.08
  GQ4                  CONDUIT     0.510     0  04:44      1.80    1.00    1.00
  GQ5                  CONDUIT     0.799     0  09:00      1.72    0.66    0.87
  GQ6                  CONDUIT     0.215     0  09:00      1.15    0.10    0.47
  GQ7                  CONDUIT     1.675     0  05:03      3.60    1.00    1.00
  GQ8                  CONDUIT     0.432     0  09:00      1.11    0.41    0.72
  GQ9                  CONDUIT     1.172     0  09:00      3.01    0.41    0.72
  GQ10                 CONDUIT     1.132     0  04:07      4.05    1.04    1.00
  GQ11                 CONDUIT     0.127     0  09:00      1.66    0.14    0.35
  GQ12                 CONDUIT     0.148     0  09:00      0.78    0.16    0.64
  GQ13                 CONDUIT     0.100     0  09:00      0.49    0.05    0.57
  GQ14                 CONDUIT     0.049     0  09:00      0.89    0.07    0.17
  GQ15                 CONDUIT     0.130     0  09:00      3.99    0.52    0.47
  GQ16                 CONDUIT     1.060     0  09:00      3.78    0.51    0.39
  GQ17                 CONDUIT     0.238     0  09:00      1.38    0.08    0.37
  GQ18                 CONDUIT     1.048     0  09:00      2.50    4.72    0.78
  GQ19                 CONDUIT     0.317     0  09:00      1.67    0.04    0.29
  GQ20                 CONDUIT     0.069     0  09:00      0.44    0.04    0.30
  GQ21                 CONDUIT     0.255     0  09:00      1.34    0.08    0.33
  GQ22                 CONDUIT     0.258     0  09:00      1.62    0.08    0.26
  GQ23                 CONDUIT     0.463     0  09:00      2.08    0.23    0.33
  GQ24                 CONDUIT     0.715     0  09:00      1.89    0.35    0.71
  GQ25                 CONDUIT     0.432     0  09:00      3.33    0.48    0.47
  GQ26                 CONDUIT     0.333     0  09:00      2.42    0.39    0.49
  GQ27                 CONDUIT     0.526     0  09:00      2.24    0.53    0.77
  GQ28                 CONDUIT     0.214     0  09:00      0.61    0.23    0.66
  GQ29                 CONDUIT     0.692     0  09:00      1.38    0.32    1.00
  GQ30                 CONDUIT     0.824     0  08:48      2.91    1.00    1.00
  GQ31                 CONDUIT     0.377     0  09:00      1.66    0.51    0.75
  GQ32                 CONDUIT     0.619     0  09:00      2.92    0.99    0.76
  GQ33                 CONDUIT     1.372     0  08:45      4.87    0.96    1.00
  GQ34                 CONDUIT     0.269     0  09:00      1.37    0.42    0.73
  GQ35                 CONDUIT     0.522     0  08:45      2.11    0.97    0.94
  GQ36                 CONDUIT     0.853     0  09:00      3.11    1.06    0.93
  GQ37                 CONDUIT     0.337     0  09:00      1.47    0.48    0.76
  GQ38                 CONDUIT     0.146     0  09:00      0.74    0.21    0.65
  GQ39                 CONDUIT     0.571     0  09:00      2.29    0.73    0.83
  GQ40                 CONDUIT     0.421     0  09:00      2.46    0.52    0.58
  GQ41                 CONDUIT     0.994     0  09:00      1.49    0.46    0.79
  GQ42                 CONDUIT     1.359     0  04:41      2.70    1.00    1.00
  GQ43                 CONDUIT     2.193     0  09:02      4.59    0.98    0.90
  GQ44                 CONDUIT     0.946     0  04:43      1.88    1.00    1.00
  GQ45                 CONDUIT     0.567     0  09:00      1.77    0.23    0.66
  GQ46                 CONDUIT     1.068     0  08:55      2.12    1.00    1.00
  GQ47                 CONDUIT     0.111     0  09:00      0.62    0.11    0.61
  GQ48                 CONDUIT     0.111     0  09:00      0.61    0.11    0.61
  GQ49                 CONDUIT     0.428     0  09:00      2.26    0.16    0.64
  GQ50                 CONDUIT     0.123     0  09:00      1.00    0.16    0.46
  GQ51                 CONDUIT     0.492     0  09:00      2.56    0.75    0.64
  GQ52                 CONDUIT     0.364     0  09:00      0.91    0.49    0.75
  GQ53                 CONDUIT     2.225     0  04:49      2.83    1.00    1.00
  GQ54                 CONDUIT     0.268     0  09:00      1.35    0.23    0.66
  GQ55                 CONDUIT     0.200     0  09:00      1.08    0.14    0.62
  GQ56                 CONDUIT     1.966     0  04:22      4.19    1.07    1.00
  GQ57                 CONDUIT     0.381     0  09:00      1.06    0.25    0.67
  GQ58                 CONDUIT     0.793     0  09:00      2.22    0.25    0.67
  GQ59                 CONDUIT     1.203     0  07:04      2.39    1.00    1.00
  GQ60                 CONDUIT     1.306     0  09:00      0.98    0.31    0.71
  GQ61                 CONDUIT     0.172     0  09:00      0.23    0.02    0.55
  GQ62                 CONDUIT     0.360     0  09:00      0.32    0.04    0.56
  GQ63                 CONDUIT     0.821     0  09:00      0.59    0.02    0.55
  GQ64                 CONDUIT     0.058     0  09:00      1.22    0.05    0.24
  GQ65                 CONDUIT     0.025     0  09:00      0.31    0.05    0.34
  GQ66                 CONDUIT     0.102     0  09:00      0.40    0.03    0.56
  GQ67                 CONDUIT     0.538     0  09:00      0.48    0.37    1.00
  GQ68                 CONDUIT     0.484     0  09:00      0.92    0.15    0.63
  GQ69                 CONDUIT     0.930     0  09:00      2.48    0.33    0.70
  GQ70                 CONDUIT     0.328     0  09:00      7.08    0.05    0.15
  GQ71                 CONDUIT     0.398     0  09:00      5.17    0.10    0.21
  GQ72                 CONDUIT     1.747     0  09:00      5.09    0.42    0.45
  GQ73                 CONDUIT     1.143     0  09:00     11.47    0.07    0.18
  GQ74                 CONDUIT     0.210     0  09:00      1.24    0.04    0.28
  GQ75                 CONDUIT     0.257     0  09:00      0.53    0.08    0.59
  GQ76                 CONDUIT     1.682     0  09:00      5.42    0.36    0.42
  GQ77                 CONDUIT     0.000     0  00:00      0.00    0.00    0.19
  GQ78                 CONDUIT     0.773     0  09:00      2.89    0.84    0.90
  GQ79                 CONDUIT     0.230     0  09:00      1.08    0.50    0.72
  GQ80                 CONDUIT     0.261     0  09:00      0.98    0.43    0.90
  GQ81                 CONDUIT     0.542     0  04:05      1.92    3.43    1.00
  GQ82                 CONDUIT     0.358     0  09:00      1.78    0.25    0.67
  GQ83                 CONDUIT     0.386     0  09:00      2.62    0.25    0.52
  GQ84                 CONDUIT     0.788     0  09:00      3.30    0.62    0.79
  GQ85                 CONDUIT     0.197     0  09:00      0.83    0.34    0.79
  GQ86                 CONDUIT     0.105     0  09:00      0.63    0.05    0.57
  GQ87                 CONDUIT     0.038     0  09:00      0.22    0.06    0.58
  GQ88                 CONDUIT     0.259     0  09:00      1.30    0.23    0.66
  GQ89                 CONDUIT     0.214     0  09:00      1.04    0.28    0.68
  GQ90                 CONDUIT     0.218     0  09:00      1.10    0.22    0.66
  GQ91                 CONDUIT     0.183     0  09:00      0.92    0.22    0.66
  GQ92                 CONDUIT     0.433     0  09:00      1.68    0.62    0.51
  GQ93                 CONDUIT     0.458     0  09:00      1.41    0.39    0.63
  GQ94                 CONDUIT     0.853     0  09:00      1.99    1.01    0.82
  GQ95                 CONDUIT     0.119     0  09:00      0.41    0.03    0.56
  GQ96                 CONDUIT     0.386     0  09:00      1.25    0.66    0.59
  GQ97                 CONDUIT     0.215     0  09:00      1.81    0.39    0.44
  GQ98                 CONDUIT     0.204     0  09:00      0.93    0.29    0.72
  GQ99                 CONDUIT     0.390     0  09:00      0.43    0.02    0.55
  GQ100                CONDUIT     0.281     0  09:00      2.68    0.48    0.40
  GQ101                CONDUIT     0.193     0  09:00      1.03    0.14    0.63
  GQ102                CONDUIT     0.753     0  09:00      2.13    0.23    0.66
  GQ103                CONDUIT     0.370     0  09:00      1.58    0.57    0.77
  GQ104                CONDUIT     0.721     0  09:00      3.14    0.52    0.76
  GQ105                CONDUIT     0.417     0  03:52      0.83    1.33    1.00
  GQ106                CONDUIT     0.218     0  09:00      1.10    0.22    0.66
  GQ107                CONDUIT     0.844     0  09:00      3.38    0.76    0.83
  GQ108                CONDUIT     0.829     0  07:18      1.65    1.00    1.00
  GQ109                CONDUIT     0.158     0  09:00      1.27    0.21    0.48
  GQ110                CONDUIT     0.261     0  09:00      0.57    0.04    0.57
  GQ111                CONDUIT     0.235     0  09:00      1.19    0.21    0.66
  GQ112                CONDUIT     0.718     0  09:00      2.71    0.13    0.28
  GQ113                CONDUIT     0.397     0  09:00      3.42    0.30    0.43
  GQ114                CONDUIT     0.238     0  09:00      0.45    0.10    0.63
  GQ115                CONDUIT     0.102     0  09:00      0.88    0.01    0.16
  GQ116                CONDUIT     0.148     0  09:00      0.33    0.02    0.55
  GQ117                CONDUIT     0.524     0  09:00      4.03    0.33    0.31
  GQ118                CONDUIT     0.198     0  09:00      1.63    0.07    0.31
  GQ119                CONDUIT     2.119     0  04:54      4.30    0.92    1.00
  GQ120                CONDUIT     0.000     0  00:00      0.00    0.00    0.50
  GQ121                CONDUIT     0.723     0  09:00      1.44    0.51    1.00
  GQ122                CONDUIT     0.302     0  09:00      1.42    0.06    0.58
  GQ123                CONDUIT     0.202     0  09:00      1.13    0.10    0.61
  GQ124                CONDUIT     0.126     0  09:00      0.92    0.06    0.32
  GQ125                CONDUIT     0.252     0  09:00      1.23    0.28    0.68
  GQ126                CONDUIT     0.311     0  09:00      1.50    0.30    0.69
  GQ127                CONDUIT     0.737     0  08:48      1.67    0.94    0.90
  GQ128                CONDUIT     1.056     0  09:00      2.57    0.23    0.63
  GQ129                CONDUIT     1.313     0  04:56      2.61    1.00    1.00
  GQ130                CONDUIT     1.073     0  04:45      3.79    1.00    1.00
  GQ131                CONDUIT     0.604     0  09:00      2.42    0.70    0.82
  
  
  ***************************
  Flow Classification Summary
  ***************************
  
  -------------------------------------------------------------------------------------
                      Adjusted    ---------- Fraction of Time in Flow Class ---------- 
                       /Actual         Up    Down  Sub   Sup   Up    Down  Norm  Inlet 
  Conduit               Length    Dry  Dry   Dry   Crit  Crit  Crit  Crit  Ltd   Ctrl  
  -------------------------------------------------------------------------------------
  GQ1                     1.00   0.02  0.00  0.00  0.05  0.92  0.00  0.00  0.00  0.00
  GQ2                     1.00   0.02  0.00  0.00  0.07  0.91  0.00  0.00  0.90  0.00
  GQ3                     1.00   0.04  0.00  0.00  0.01  0.95  0.00  0.00  0.06  0.00
  GQ4                     1.00   0.02  0.00  0.00  0.98  0.00  0.00  0.00  0.28  0.00
  GQ5                     1.00   0.02  0.00  0.00  0.98  0.00  0.00  0.00  0.69  0.00
  GQ6                     1.00   0.02  0.00  0.00  0.97  0.00  0.00  0.00  0.91  0.00
  GQ7                     1.00   0.02  0.00  0.00  0.73  0.24  0.00  0.00  0.11  0.00
  GQ8                     1.00   0.02  0.00  0.00  0.98  0.00  0.00  0.00  0.91  0.00
  GQ9                     1.00   0.02  0.00  0.00  0.38  0.60  0.00  0.00  0.91  0.00
  GQ10                    1.00   0.02  0.00  0.00  0.93  0.04  0.00  0.00  0.28  0.00
  GQ11                    1.00   0.02  0.00  0.00  0.03  0.95  0.00  0.00  0.86  0.00
  GQ12                    1.00   0.02  0.00  0.00  0.98  0.00  0.00  0.00  0.91  0.00
  GQ13                    1.00   0.02  0.01  0.00  0.97  0.00  0.00  0.00  0.91  0.00
  GQ14                    1.00   0.02  0.00  0.00  0.98  0.00  0.00  0.00  0.05  0.00
  GQ15                    1.00   0.02  0.00  0.00  0.02  0.95  0.00  0.00  0.01  0.00
  GQ16                    1.00   0.02  0.00  0.00  0.03  0.95  0.00  0.00  0.00  0.00
  GQ17                    1.00   0.02  0.00  0.00  0.91  0.07  0.00  0.00  0.90  0.00
  GQ18                    1.00   0.02  0.00  0.00  0.48  0.50  0.00  0.00  0.20  0.00
  GQ19                    1.00   0.02  0.00  0.00  0.41  0.56  0.00  0.00  0.90  0.00
  GQ20                    1.00   0.02  0.00  0.00  0.98  0.00  0.00  0.00  0.91  0.00
  GQ21                    1.00   0.02  0.00  0.00  0.79  0.18  0.00  0.00  0.91  0.00
  GQ22                    1.00   0.02  0.00  0.00  0.03  0.94  0.00  0.00  0.91  0.00
  GQ23                    1.00   0.02  0.00  0.00  0.04  0.94  0.00  0.00  0.26  0.00
  GQ24                    1.00   0.02  0.00  0.00  0.98  0.00  0.00  0.00  0.91  0.00
  GQ25                    1.00   0.02  0.00  0.00  0.01  0.97  0.00  0.00  0.01  0.00
  GQ26                    1.00   0.02  0.00  0.00  0.03  0.95  0.00  0.00  0.83  0.00
  GQ27                    1.00   0.02  0.00  0.00  0.70  0.27  0.00  0.00  0.72  0.00
  GQ28                    1.00   0.02  0.00  0.00  0.98  0.00  0.00  0.00  0.91  0.00
  GQ29                    1.00   0.02  0.00  0.00  0.98  0.00  0.00  0.00  0.25  0.00
  GQ30                    1.00   0.02  0.00  0.00  0.96  0.02  0.00  0.00  0.25  0.00
  GQ31                    1.00   0.02  0.00  0.00  0.98  0.00  0.00  0.00  0.91  0.00
  GQ32                    1.00   0.02  0.00  0.00  0.03  0.94  0.00  0.00  0.00  0.00
  GQ33                    1.00   0.02  0.00  0.00  0.18  0.79  0.00  0.00  0.47  0.00
  GQ34                    1.00   0.02  0.00  0.00  0.98  0.00  0.00  0.00  0.91  0.00
  GQ35                    1.00   0.02  0.00  0.00  0.27  0.71  0.00  0.00  0.52  0.00
  GQ36                    1.00   0.02  0.00  0.00  0.03  0.95  0.00  0.00  0.81  0.00
  GQ37                    1.00   0.02  0.00  0.00  0.98  0.00  0.00  0.00  0.78  0.00
  GQ38                    1.00   0.02  0.01  0.00  0.97  0.00  0.00  0.00  0.91  0.00
  GQ39                    1.00   0.02  0.00  0.00  0.95  0.02  0.00  0.00  0.78  0.00
  GQ40                    1.00   0.02  0.00  0.00  0.04  0.93  0.00  0.00  0.91  0.00
  GQ41                    1.00   0.02  0.00  0.00  0.98  0.00  0.00  0.00  0.48  0.00
  GQ42                    1.00   0.02  0.00  0.00  0.98  0.00  0.00  0.00  0.29  0.00
  GQ43                    1.00   0.02  0.00  0.00  0.03  0.95  0.00  0.00  0.89  0.00
  GQ44                    1.00   0.02  0.00  0.00  0.98  0.00  0.00  0.00  0.27  0.00
  GQ45                    1.00   0.02  0.00  0.00  0.93  0.04  0.00  0.00  0.91  0.00
  GQ46                    1.00   0.02  0.00  0.00  0.90  0.08  0.00  0.00  0.10  0.00
  GQ47                    1.00   0.02  0.00  0.00  0.98  0.00  0.00  0.00  0.91  0.00
  GQ48                    1.00   0.02  0.00  0.00  0.98  0.00  0.00  0.00  0.91  0.00
  GQ49                    1.00   0.02  0.00  0.00  0.63  0.35  0.00  0.00  0.91  0.00
  GQ50                    1.00   0.02  0.00  0.00  0.98  0.00  0.00  0.00  0.91  0.00
  GQ51                    1.00   0.02  0.00  0.00  0.03  0.95  0.00  0.00  0.45  0.00
  GQ52                    1.00   0.02  0.00  0.00  0.98  0.00  0.00  0.00  0.68  0.00
  GQ53                    1.00   0.02  0.00  0.00  0.98  0.00  0.00  0.00  0.33  0.00
  GQ54                    1.00   0.02  0.00  0.00  0.98  0.00  0.00  0.00  0.91  0.00
  GQ55                    1.00   0.02  0.00  0.00  0.98  0.00  0.00  0.00  0.91  0.00
  GQ56                    1.00   0.02  0.00  0.00  0.55  0.42  0.00  0.00  0.20  0.00
  GQ57                    1.00   0.02  0.00  0.00  0.98  0.00  0.00  0.00  0.91  0.00
  GQ58                    1.00   0.02  0.00  0.00  0.90  0.08  0.00  0.00  0.91  0.00
  GQ59                    1.00   0.02  0.00  0.00  0.98  0.00  0.00  0.00  0.32  0.00
  GQ60                    1.00   0.02  0.00  0.00  0.98  0.00  0.00  0.00  0.28  0.00
  GQ61                    1.00   0.02  0.00  0.00  0.98  0.00  0.00  0.00  0.91  0.00
  GQ62                    1.00   0.02  0.00  0.00  0.98  0.00  0.00  0.00  0.91  0.00
  GQ63                    1.00   0.02  0.00  0.00  0.97  0.00  0.00  0.00  0.91  0.00
  GQ64                    1.00   0.02  0.00  0.00  0.02  0.95  0.00  0.00  0.91  0.00
  GQ65                    1.00   0.02  0.00  0.00  0.98  0.00  0.00  0.00  0.91  0.00
  GQ66                    1.00   0.02  0.00  0.00  0.98  0.00  0.00  0.00  0.91  0.00
  GQ67                    1.00   0.02  0.00  0.00  0.98  0.00  0.00  0.00  0.24  0.00
  GQ68                    1.00   0.02  0.00  0.00  0.98  0.00  0.00  0.00  0.91  0.00
  GQ69                    1.00   0.02  0.00  0.00  0.72  0.26  0.00  0.00  0.91  0.00
  GQ70                    1.00   0.03  0.00  0.00  0.02  0.95  0.00  0.00  0.06  0.00
  GQ71                    1.00   0.03  0.00  0.00  0.02  0.95  0.00  0.00  0.04  0.00
  GQ72                    1.00   0.02  0.00  0.00  0.00  0.97  0.00  0.00  0.34  0.00
  GQ73                    1.00   0.03  0.00  0.00  0.02  0.95  0.00  0.00  0.07  0.00
  GQ74                    1.00   0.02  0.00  0.00  0.90  0.08  0.00  0.00  0.90  0.00
  GQ75                    1.00   0.02  0.01  0.00  0.97  0.00  0.00  0.00  0.91  0.00
  GQ76                    1.00   0.02  0.00  0.00  0.00  0.97  0.00  0.00  0.25  0.00
  GQ77                    1.00   0.02  0.98  0.00  0.00  0.00  0.00  0.00  0.00  0.00
  GQ78                    1.00   0.02  0.00  0.00  0.34  0.64  0.00  0.00  0.48  0.00
  GQ79                    1.00   0.02  0.00  0.00  0.98  0.00  0.00  0.00  0.23  0.00
  GQ80                    1.00   0.02  0.00  0.00  0.98  0.00  0.00  0.00  0.28  0.00
  GQ81                    1.00   0.02  0.00  0.00  0.98  0.00  0.00  0.00  0.00  0.00
  GQ82                    1.00   0.02  0.00  0.00  0.94  0.04  0.00  0.00  0.91  0.00
  GQ83                    1.00   0.02  0.00  0.00  0.02  0.95  0.00  0.00  0.90  0.00
  GQ84                    1.00   0.02  0.00  0.00  0.04  0.94  0.00  0.00  0.91  0.00
  GQ85                    1.00   0.02  0.00  0.00  0.98  0.00  0.00  0.00  0.27  0.00
  GQ86                    1.00   0.02  0.00  0.00  0.98  0.00  0.00  0.00  0.91  0.00
  GQ87                    1.00   0.02  0.00  0.00  0.98  0.00  0.00  0.00  0.91  0.00
  GQ88                    1.00   0.02  0.00  0.00  0.98  0.00  0.00  0.00  0.91  0.00
  GQ89                    1.00   0.02  0.00  0.00  0.98  0.00  0.00  0.00  0.91  0.00
  GQ90                    1.00   0.02  0.00  0.00  0.96  0.02  0.00  0.00  0.91  0.00
  GQ91                    1.00   0.02  0.00  0.00  0.98  0.00  0.00  0.00  0.91  0.00
  GQ92                    1.00   0.02  0.00  0.00  0.89  0.09  0.00  0.00  0.00  0.00
  GQ93                    1.00   0.02  0.00  0.00  0.98  0.00  0.00  0.00  0.90  0.00
  GQ94                    1.00   0.02  0.00  0.00  0.84  0.13  0.00  0.00  0.00  0.00
  GQ95                    1.00   0.02  0.00  0.00  0.98  0.00  0.00  0.00  0.91  0.00
  GQ96                    1.00   0.02  0.00  0.00  0.98  0.00  0.00  0.00  0.19  0.00
  GQ97                    1.00   0.02  0.00  0.00  0.03  0.95  0.00  0.00  0.22  0.00
  GQ98                    1.00   0.02  0.00  0.00  0.98  0.00  0.00  0.00  0.44  0.00
  GQ99                    1.00   0.02  0.00  0.00  0.98  0.00  0.00  0.00  0.91  0.00
  GQ100                   1.00   0.02  0.00  0.00  0.03  0.95  0.00  0.00  0.00  0.00
  GQ101                   1.00   0.02  0.00  0.00  0.97  0.01  0.00  0.00  0.91  0.00
  GQ102                   1.00   0.02  0.00  0.00  0.96  0.02  0.00  0.00  0.91  0.00
  GQ103                   1.00   0.02  0.00  0.00  0.98  0.00  0.00  0.00  0.91  0.00
  GQ104                   1.00   0.02  0.00  0.00  0.28  0.69  0.00  0.00  0.91  0.00
  GQ105                   1.00   0.02  0.00  0.00  0.98  0.00  0.00  0.00  0.23  0.00
  GQ106                   1.00   0.02  0.00  0.00  0.97  0.00  0.00  0.00  0.91  0.00
  GQ107                   1.00   0.02  0.00  0.00  0.21  0.77  0.00  0.00  0.89  0.00
  GQ108                   1.00   0.02  0.00  0.00  0.98  0.00  0.00  0.00  0.26  0.00
  GQ109                   1.00   0.02  0.00  0.00  0.90  0.07  0.00  0.00  0.90  0.00
  GQ110                   1.00   0.02  0.00  0.00  0.98  0.00  0.00  0.00  0.91  0.00
  GQ111                   1.00   0.02  0.00  0.00  0.97  0.00  0.00  0.00  0.91  0.00
  GQ112                   1.00   0.02  0.00  0.00  0.03  0.95  0.00  0.00  0.91  0.00
  GQ113                   1.00   0.02  0.00  0.00  0.00  0.98  0.00  0.00  0.87  0.00
  GQ114                   1.00   0.02  0.00  0.00  0.98  0.00  0.00  0.00  0.24  0.00
  GQ115                   1.00   0.02  0.00  0.00  0.97  0.01  0.00  0.00  0.91  0.00
  GQ116                   1.00   0.02  0.00  0.00  0.98  0.00  0.00  0.00  0.91  0.00
  GQ117                   1.00   0.02  0.00  0.00  0.00  0.97  0.00  0.00  0.00  0.00
  GQ118                   1.00   0.02  0.00  0.00  0.07  0.91  0.00  0.00  0.91  0.00
  GQ119                   1.00   0.02  0.00  0.00  0.26  0.72  0.00  0.00  0.45  0.00
  GQ120                   1.00   0.02  0.09  0.00  0.89  0.00  0.00  0.00  0.00  0.00
  GQ121                   1.00   0.02  0.00  0.00  0.98  0.00  0.00  0.00  0.24  0.00
  GQ122                   1.00   0.02  0.01  0.00  0.91  0.05  0.00  0.00  0.90  0.00
  GQ123                   1.00   0.02  0.00  0.00  0.92  0.06  0.00  0.00  0.91  0.00
  GQ124                   1.00   0.02  0.01  0.00  0.96  0.00  0.00  0.00  0.91  0.00
  GQ125                   1.00   0.02  0.00  0.00  0.97  0.00  0.00  0.00  0.91  0.00
  GQ126                   1.00   0.02  0.00  0.00  0.98  0.00  0.00  0.00  0.91  0.00
  GQ127                   1.00   0.02  0.00  0.00  0.98  0.00  0.00  0.00  0.81  0.00
  GQ128                   1.00   0.02  0.00  0.00  0.21  0.77  0.00  0.00  0.79  0.00
  GQ129                   1.00   0.02  0.00  0.00  0.98  0.00  0.00  0.00  0.27  0.00
  GQ130                   1.00   0.02  0.00  0.00  0.96  0.02  0.00  0.00  0.28  0.00
  GQ131                   1.00   0.02  0.00  0.00  0.72  0.25  0.00  0.00  0.72  0.00
  
  
  *************************
  Conduit Surcharge Summary
  *************************
  
  ----------------------------------------------------------------------------
                                                           Hours        Hours 
                         --------- Hours Full --------   Above Full   Capacity
  Conduit                Both Ends  Upstream  Dnstream   Normal Flow   Limited
  ----------------------------------------------------------------------------
  GQ4                         6.73      6.73      7.24      0.01         0.01
  GQ5                         0.01      0.01      7.15      0.01         0.01
  GQ7                         5.07      5.07      6.71      0.01         0.01
  GQ8                         0.01      0.01      5.07      0.01         0.01
  GQ9                         0.01      0.01      7.48      0.01         0.01
  GQ10                        6.87      6.87      7.55      0.02         0.01
  GQ12                        0.01      0.01      6.96      0.01         0.01
  GQ13                        0.01      0.01      6.68      0.01         0.01
  GQ18                        0.01      0.01      7.04      7.09         0.01
  GQ24                        0.01      0.01      7.36      0.01         0.01
  GQ27                        0.01      0.01      6.99      0.01         0.01
  GQ28                        0.01      0.01      7.18      0.01         0.01
  GQ29                        6.90      6.90      7.18      0.01         0.01
  GQ30                        6.99      6.99      7.28      0.01         0.01
  GQ31                        0.01      0.01      7.58      0.01         0.01
  GQ32                        0.01      0.48      0.01      0.01         0.01
  GQ33                        0.48      0.48      7.58      0.01         0.01
  GQ34                        0.01      0.01      0.48      0.01         0.01
  GQ35                        0.01      0.01      0.48      0.01         0.01
  GQ36                        0.01      0.01      0.01      0.29         0.01
  GQ37                        0.01      0.01      7.45      0.01         0.01
  GQ38                        0.01      0.01      7.45      0.01         0.01
  GQ39                        0.01      0.01      6.96      0.01         0.01
  GQ41                        0.01      0.01      7.16      0.01         0.01
  GQ42                        4.94      4.94      7.22      0.01         0.01
  GQ43                        0.01      0.01      4.94      0.01         0.01
  GQ44                        6.85      6.85      7.04      0.01         0.01
  GQ45                        0.01      0.01      5.87      0.01         0.01
  GQ46                        5.87      5.87      6.85      0.01         0.01
  GQ47                        0.01      0.01      7.26      0.01         0.01
  GQ48                        0.01      0.01      7.34      0.01         0.01
  GQ49                        0.01      0.01      7.34      0.01         0.01
  GQ52                        0.01      0.01      6.90      0.01         0.01
  GQ53                        4.55      4.55      7.26      0.01         0.01
  GQ54                        0.01      0.01      7.36      0.01         0.01
  GQ55                        0.01      0.01      7.36      0.01         0.01
  GQ56                        3.63      3.63      5.07      2.78         1.85
  GQ57                        0.01      0.01      3.63      0.01         0.01
  GQ58                        0.01      0.01      7.06      0.01         0.01
  GQ59                        4.94      4.94      7.06      0.01         0.01
  GQ60                        0.01      0.01      5.31      0.01         0.01
  GQ61                        0.01      0.01      6.68      0.01         0.01
  GQ62                        0.01      0.01      6.73      0.01         0.01
  GQ63                        0.01      0.01      6.77      0.01         0.01
  GQ66                        0.01      0.01      6.80      0.01         0.01
  GQ67                        6.69      6.69      6.74      0.01         0.01
  GQ68                        0.01      0.01      6.91      0.01         0.01
  GQ69                        0.01      0.01      7.23      0.01         0.01
  GQ75                        0.01      0.01      6.91      0.01         0.01
  GQ78                        0.01      0.01      7.41      0.01         0.01
  GQ79                        0.01      0.01      7.41      0.01         0.01
  GQ80                        0.01      0.01      7.04      0.01         0.01
  GQ81                        6.96      7.04      6.96      7.14         0.05
  GQ82                        0.01      0.01      6.96      0.01         0.01
  GQ84                        0.01      0.01      5.04      0.01         0.01
  GQ85                        0.01      0.01      7.63      0.01         0.01
  GQ86                        0.01      0.01      7.27      0.01         0.01
  GQ87                        0.01      0.01      7.27      0.01         0.01
  GQ88                        0.01      0.01      7.31      0.01         0.01
  GQ89                        0.01      0.01      6.99      0.01         0.01
  GQ90                        0.01      0.01      6.87      0.01         0.01
  GQ91                        0.01      0.01      7.09      0.01         0.01
  GQ94                        0.01      0.01      0.01      0.31         0.01
  GQ95                        0.01      0.01      7.39      0.01         0.01
  GQ98                        0.01      0.01      7.21      0.01         0.01
  GQ99                        0.01      0.01      6.76      0.01         0.01
  GQ101                       0.01      0.01      7.09      0.01         0.01
  GQ102                       0.01      0.01      7.19      0.01         0.01
  GQ103                       0.01      0.01      7.30      0.01         0.01
  GQ104                       0.01      0.01      7.30      0.01         0.01
  GQ105                       7.13      7.13      7.19      6.74         0.01
  GQ106                       0.01      0.01      7.17      0.01         0.01
  GQ107                       0.01      0.01      7.17      0.01         0.01
  GQ108                       6.91      6.91      7.13      0.01         0.01
  GQ110                       0.01      0.01      6.91      0.01         0.01
  GQ111                       0.01      0.01      7.09      0.01         0.01
  GQ114                       0.01      0.01      7.34      0.01         0.01
  GQ116                       0.01      0.01      7.26      0.01         0.01
  GQ119                       0.78      0.78      7.35      0.01         0.01
  GQ120                       0.01      0.01      7.29      0.01         0.01
  GQ121                       7.16      7.16      7.35      0.01         0.01
  GQ122                       0.01      0.01      7.16      0.01         0.01
  GQ123                       0.01      0.01      7.19      0.01         0.01
  GQ125                       0.01      0.01      7.09      0.01         0.01
  GQ126                       0.01      0.01      7.09      0.01         0.01
  GQ127                       0.01      0.01      0.78      0.01         0.01
  GQ129                       6.71      6.71      7.36      0.01         0.01
  GQ130                       6.75      6.75      7.73      0.01         0.01
  GQ131                       0.01      0.01      7.60      0.01         0.01
  

  Analysis begun on:  Wed Mar 29 19:13:29 2023
  Analysis ended on:  Wed Mar 29 19:13:52 2023
  Total elapsed time: 00:00:23