
  OWA STORM WATER MANAGEMENT MODEL - VERSION v5.1.14 (OWA 2022-07-31)
  --------------------------------------------------------------

  INP file created by DSDAConvertToSwmmTools 
  version 0.0.1 EcoVista 
  Title/Notes: 
  
  
  *********************************************************
  NOTE: The summary statistics displayed in this report are
  based on results found at every computational time step,  
  not just on results from each reporting time step.
  *********************************************************
  
  ****************
  Analysis Options
  ****************
  Flow Units ............... CMS
  Process Models:
    Rainfall/Runoff ........ YES
    RDII ................... NO
    Snowmelt ............... NO
    Groundwater ............ NO
    Flow Routing ........... YES
    Ponding Allowed ........ NO
    Water Quality .......... NO
  Infiltration Method ...... GREEN_AMPT
  Flow Routing Method ...... DYNWAVE
  Surcharge Method ......... EXTRAN
  Starting Date ............ 07/15/2020 00:00:00
  Ending Date .............. 07/15/2020 14:00:00
  Antecedent Dry Days ...... 0.0
  Report Time Step ......... 00:30:00
  Wet Time Step ............ 00:05:00
  Dry Time Step ............ 01:00:00
  Routing Time Step ........ 30.00 sec
  Variable Time Step ....... YES
  Maximum Trials ........... 8
  Number of Threads ........ 1
  Head Tolerance ........... 0.001500 m
  
  
  **************************        Volume         Depth
  Runoff Quantity Continuity     hectare-m            mm
  **************************     ---------       -------
  Total Precipitation ......       322.518        80.700
  Evaporation Loss .........         4.886         1.223
  Infiltration Loss ........        86.191        21.567
  Surface Runoff ...........       224.589        56.196
  Final Storage ............         7.115         1.780
  Continuity Error (%) .....        -0.081
  
  
  **************************        Volume        Volume
  Flow Routing Continuity        hectare-m      10^6 ltr
  **************************     ---------     ---------
  Dry Weather Inflow .......         0.000         0.000
  Wet Weather Inflow .......       224.510      2245.126
  Groundwater Inflow .......         0.000         0.000
  RDII Inflow ..............         0.000         0.000
  External Inflow ..........         0.000         0.000
  External Outflow .........        18.820       188.199
  Flooding Loss ............       204.328      2043.306
  Evaporation Loss .........         0.000         0.000
  Exfiltration Loss ........         0.000         0.000
  Initial Stored Volume ....         0.000         0.000
  Final Stored Volume ......         1.242        12.423
  Continuity Error (%) .....         0.053
  
  
  *************************
  Highest Continuity Errors
  *************************
  Node jd51 (2.47%)
  Node jd64 (1.95%)
  Node jd59 (1.93%)
  Node jd31 (1.87%)
  Node jd41 (1.68%)
  
  
  ***************************
  Time-Step Critical Elements
  ***************************
  Link GQ73 (98.17%)
  
  
  ********************************
  Highest Flow Instability Indexes
  ********************************
  Link GQ67 (20)
  Link GQ29 (7)
  Link GQ121 (5)
  Link GQ94 (4)
  Link GQ114 (4)
  
  
  *************************
  Routing Time Step Summary
  *************************
  Minimum Time Step           :     3.25 sec
  Average Time Step           :     6.99 sec
  Maximum Time Step           :    30.00 sec
  Percent in Steady State     :     0.00
  Average Iterations per Step :     4.19
  Percent Not Converging      :    16.81
  
  
  ***************************
  Subcatchment Runoff Summary
  ***************************
  
  ------------------------------------------------------------------------------------------------------------------------------
                            Total      Total      Total      Total     Imperv       Perv      Total       Total     Peak  Runoff
                           Precip      Runon       Evap      Infil     Runoff     Runoff     Runoff      Runoff   Runoff   Coeff
  Subcatchment                 mm         mm         mm         mm         mm         mm         mm    10^6 ltr      CMS
  ------------------------------------------------------------------------------------------------------------------------------
  1                         80.70       0.00       0.73      45.21      33.85       0.00      33.85       13.40     1.15   0.419
  2                         80.70       0.00       1.31      17.18      60.25       0.00      60.25       54.48     4.71   0.747
  3                         80.70       0.00       1.36      14.72      62.72       0.00      62.72       25.09     2.17   0.777
  4                         80.70       0.00       1.41      12.65      64.79       0.00      64.79        5.44     0.47   0.803
  5                         80.70       0.00       1.24      20.55      57.28       0.00      57.28        7.08     0.61   0.710
  6                         80.70       0.00       1.19      23.13      54.86       0.00      54.86        5.10     0.44   0.680
  7                         80.70       0.00       1.24      20.65      57.02       0.00      57.02       24.86     2.15   0.707
  8                         80.70       0.00       1.57       4.52      72.38       0.00      72.38       10.08     0.87   0.897
  9                         80.70       0.00       1.62       2.25      74.56       0.00      74.56        8.73     0.75   0.924
  10                        80.70       0.00       1.40      13.13      64.25       0.00      64.25       14.47     1.25   0.796
  11                        80.70       0.00       1.51       7.71      69.32       0.00      69.32       34.37     2.97   0.859
  12                        80.70       0.00       1.19      23.20      54.68       0.00      54.68       26.68     2.31   0.678
  13                        80.70       0.00       1.49       8.70      68.40       0.00      68.40       30.94     2.68   0.848
  14                        80.70       0.00       1.49       8.80      68.38       0.00      68.38       12.90     1.11   0.847
  15                        80.70       0.00       1.38      14.19      63.22       0.00      63.22       21.37     1.85   0.783
  16                        80.70       0.00       1.43      11.72      65.54       0.00      65.54       19.36     1.67   0.812
  17                        80.70       0.00       1.34      16.11      61.40       0.00      61.40       25.69     2.22   0.761
  18                        80.70       0.00       1.54       6.35      70.61       0.00      70.61       29.15     2.52   0.875
  19                        80.70       0.00       1.53       6.64      70.32       0.00      70.32       15.81     1.37   0.871
  20                        80.70       0.00       1.52       7.08      69.80       0.00      69.80       37.46     3.24   0.865
  21                        80.70       0.00       1.62       2.37      74.36       0.00      74.36       23.33     2.02   0.921
  22                        80.70       0.00       1.59       3.81      72.98       0.00      72.98        8.98     0.78   0.904
  23                        80.70       0.00       1.46       9.87      67.24       0.00      67.24       38.49     3.33   0.833
  24                        80.70       0.00       1.41      12.32      64.90       0.00      64.90       11.51     1.00   0.804
  25                        80.70       0.00       1.51       7.57      69.52       0.00      69.52       14.08     1.22   0.861
  26                        80.70       0.00       1.29      18.41      59.10       0.00      59.10       20.74     1.79   0.732
  27                        80.70       0.00       1.54       6.04      70.79       0.00      70.79       29.92     2.59   0.877
  28                        80.70       0.00       1.58       4.45      72.35       0.00      72.35       34.20     2.96   0.897
  29                        80.70       0.00       1.41      12.52      64.85       0.00      64.85       15.14     1.31   0.804
  30                        80.70       0.00       1.61       2.72      74.21       0.00      74.21        5.32     0.46   0.920
  31                        80.70       0.00       1.63       1.70      75.04       0.00      75.04       16.54     1.43   0.930
  32                        80.70       0.00       1.59       3.59      73.22       0.00      73.22       31.64     2.74   0.907
  33                        80.70       0.00       1.61       2.63      74.11       0.00      74.11       26.11     2.26   0.918
  34                        80.70       0.00       1.50       8.17      68.90       0.00      68.90       20.20     1.75   0.854
  35                        80.70       0.00       1.54       6.09      70.86       0.00      70.86       29.39     2.54   0.878
  36                        80.70       0.00       1.27      19.22      58.49       0.00      58.49       23.01     1.99   0.725
  37                        80.70       0.00       1.58       4.36      72.50       0.00      72.50       16.09     1.39   0.898
  38                        80.70       0.00       1.48       9.14      68.00       0.00      68.00       25.94     2.24   0.843
  39                        80.70       0.00       1.34      16.05      61.48       0.00      61.48       25.96     2.24   0.762
  40                        80.70       0.00       1.49       8.73      68.38       0.00      68.38       15.63     1.35   0.847
  41                        80.70       0.00       1.52       7.10      69.97       0.00      69.97       13.80     1.19   0.867
  42                        80.70       0.00       1.52       7.17      69.74       0.00      69.74       17.22     1.49   0.864
  43                        80.70       0.00       1.28      18.87      58.73       0.00      58.73       46.43     4.01   0.728
  44                        80.70       0.00       1.36      14.71      62.64       0.00      62.64       30.28     2.62   0.776
  45                        80.70       0.00       1.28      18.72      58.90       0.00      58.90       42.62     3.68   0.730
  46                        80.70       0.00       1.24      20.86      56.97       0.00      56.97       28.48     2.46   0.706
  47                        80.70       0.00       1.30      17.85      59.72       0.00      59.72       69.63     6.02   0.740
  48                        80.70       0.00       1.55       5.59      71.20       0.00      71.20       41.32     3.58   0.882
  49                        80.70       0.00       1.42      11.95      65.19       0.00      65.19       44.13     3.82   0.808
  50                        80.70       0.00       1.57       4.54      72.11       0.00      72.11       28.34     2.45   0.894
  51                        80.70       0.00       1.51       7.84      69.02       0.00      69.02       12.91     1.12   0.855
  52                        80.70       0.00       0.73      45.27      33.82       0.00      33.82       34.71     2.99   0.419
  53                        80.70       0.00       1.06      29.39      48.90       0.00      48.90       52.08     4.49   0.606
  54                        80.70       0.00       1.31      17.38      60.20       0.00      60.20       14.68     1.27   0.746
  55                        80.70       0.00       0.75      44.44      34.60       0.00      34.60       27.30     2.35   0.429
  56                        80.70       0.00       0.28      67.03      13.14       0.00      13.14       10.70     0.92   0.163
  57                        80.70       0.00       1.48       8.99      68.01       0.00      68.01       56.50     4.89   0.843
  58                        80.70       0.00       1.37      14.25      63.16       0.00      63.16       10.40     0.90   0.783
  59                        80.70       0.00       1.34      15.84      61.75       0.00      61.75        7.86     0.68   0.765
  60                        80.70       0.00       0.50      56.39      23.26       0.00      23.26        6.66     0.57   0.288
  61                        80.70       0.00       0.78      42.90      35.98       0.00      35.98       13.56     1.17   0.446
  62                        80.70       0.00       1.09      28.08      50.02       0.00      50.02       58.62     5.06   0.620
  63                        80.70       0.00       1.48       8.90      68.03       0.00      68.03      131.56    11.37   0.843
  64                        80.70       0.00       1.11      27.13      51.03       0.00      51.03       10.96     0.94   0.632
  65                        80.70       0.00       1.51       7.87      69.01       0.00      69.01       46.41     4.01   0.855
  66                        80.70       0.00       1.19      23.34      54.47       0.00      54.47       13.88     1.20   0.675
  67                        80.70       0.00       1.11      27.09      51.11       0.00      51.11       16.52     1.42   0.633
  68                        80.70       0.00       1.33      16.39      61.16       0.00      61.16        6.80     0.59   0.758
  69                        80.70       0.00       0.78      42.95      36.10       0.00      36.10       11.55     0.99   0.447
  70                        80.70       0.00       1.10      27.58      50.51       0.00      50.51       41.56     3.59   0.626
  71                        80.70       0.00       1.36      15.08      62.40       0.00      62.40        7.65     0.66   0.773
  72                        80.70       0.00       1.43      11.52      65.78       0.00      65.78        8.19     0.71   0.815
  73                        80.70       0.00       1.30      18.02      59.68       0.00      59.68        9.91     0.86   0.739
  74                        80.70       0.00       1.24      20.96      56.87       0.00      56.87       12.24     1.06   0.705
  75                        80.70       0.00       1.37      14.29      63.16       0.00      63.16        9.10     0.79   0.783
  76                        80.70       0.00       1.44      10.84      66.46       0.00      66.46        6.44     0.56   0.823
  77                        80.70       0.00       1.54       6.21      70.78       0.00      70.78        7.66     0.66   0.877
  78                        80.70       0.00       1.49       8.83      68.28       0.00      68.28        7.50     0.65   0.846
  79                        80.70       0.00       0.65      49.18      30.13       0.00      30.13       31.95     2.75   0.373
  80                        80.70       0.00       1.23      21.29      56.42       0.00      56.42       35.32     3.05   0.699
  81                        80.70       0.00       1.25      20.36      57.31       0.00      57.31       24.98     2.16   0.710
  82                        80.70       0.00       1.19      22.92      54.90       0.00      54.90       50.33     4.35   0.680
  83                        80.70       0.00       1.49       8.47      68.68       0.00      68.68        8.39     0.73   0.851
  84                        80.70       0.00       1.41      12.53      64.78       0.00      64.78        7.73     0.67   0.803
  85                        80.70       0.00       1.66       0.61      76.14       0.00      76.14        7.08     0.61   0.943
  86                        80.70       0.00       1.53       6.81      70.21       0.00      70.21       10.34     0.89   0.870
  87                        80.70       0.00       1.63       1.73      74.97       0.00      74.97        9.86     0.85   0.929
  88                        80.70       0.00       1.46      10.06      67.17       0.00      67.17        6.43     0.56   0.832
  89                        80.70       0.00       1.53       6.49      70.55       0.00      70.55       13.59     1.17   0.874
  90                        80.70       0.00       1.67       0.02      76.76       0.00      76.76        0.88     0.08   0.951
  91                        80.70       0.00       1.39      13.52      63.72       0.00      63.72       13.89     1.20   0.790
  92                        80.70       0.00       1.54       6.28      70.72       0.00      70.72        8.84     0.76   0.876
  93                        80.70       0.00       1.25      20.05      57.67       0.00      57.67       29.51     2.55   0.715
  94                        80.70       0.00       1.13      26.14      52.06       0.00      52.06        3.65     0.31   0.645
  95                        80.70       0.00       1.67       0.09      76.62       0.00      76.62        1.67     0.14   0.949
  96                        80.70       0.00       1.35      15.63      61.90       0.00      61.90        7.56     0.65   0.767
  97                        80.70       0.00       1.63       1.71      75.06       0.00      75.06        7.46     0.64   0.930
  98                        80.70       0.00       1.35      15.25      62.28       0.00      62.28        7.68     0.66   0.772
  99                        80.70       0.00       0.67      48.28      31.01       0.00      31.01       11.51     0.99   0.384
  100                       80.70       0.00       0.75      44.66      34.46       0.00      34.46        8.84     0.76   0.427
  101                       80.70       0.00       0.76      43.77      35.28       0.00      35.28       17.28     1.49   0.437
  102                       80.70       0.00       1.24      20.52      57.24       0.00      57.24       13.96     1.21   0.709
  103                       80.70       0.00       0.42      60.58      19.30       0.00      19.30        7.02     0.60   0.239
  104                       80.70       0.00       0.28      67.09      13.05       0.00      13.05       12.64     1.08   0.162
  105                       80.70       0.00       1.37      14.33      63.15       0.00      63.15        8.26     0.71   0.783
  106                       80.70       0.00       0.74      44.75      34.34       0.00      34.34        8.38     0.72   0.426
  
  
  ******************
  Node Depth Summary
  ******************
  
  ---------------------------------------------------------------------------------
                                 Average  Maximum  Maximum  Time of Max    Reported
                                   Depth    Depth      HGL   Occurrence   Max Depth
  Node                 Type       Meters   Meters   Meters  days hr:min      Meters
  ---------------------------------------------------------------------------------
  jd1                  JUNCTION     0.15     0.27   273.27     0  06:00        0.27
  jd2                  JUNCTION     1.19     3.00   270.00     0  01:32        3.00
  jd3                  JUNCTION     2.91     3.00   266.00     0  01:19        3.00
  jd4                  JUNCTION     2.16     3.00   270.00     0  01:23        3.00
  jd5                  JUNCTION     0.11     0.19   274.19     0  06:00        0.19
  jd6                  JUNCTION     0.14     0.26   275.26     0  06:00        0.26
  jd7                  JUNCTION     0.40     0.66   264.76     0  06:00        0.66
  jd8                  JUNCTION     2.31     3.00   267.00     0  01:19        3.00
  jd9                  JUNCTION     2.17     3.00   268.00     0  01:21        3.00
  jd10                 JUNCTION     2.93     3.00   273.00     0  01:15        3.00
  jd11                 JUNCTION     0.12     0.23   282.23     0  06:00        0.23
  jd12                 JUNCTION     2.93     3.00   272.00     0  01:15        3.00
  jd13                 JUNCTION     0.15     0.31   289.31     0  06:00        0.31
  jd14                 JUNCTION     1.09     3.00   283.00     0  01:32        3.00
  jd15                 JUNCTION     0.36     0.72   278.72     0  06:00        0.72
  jd16                 JUNCTION     0.40     0.91   274.91     0  06:00        0.91
  jd17                 JUNCTION     2.36     3.00   278.80     0  01:21        3.00
  jd18                 JUNCTION     1.12     3.00   282.00     0  01:36        3.00
  jd19                 JUNCTION     1.98     3.00   270.00     0  01:22        3.00
  jd20                 JUNCTION     0.25     0.50   273.50     0  06:00        0.50
  jd21                 JUNCTION     2.91     3.00   273.00     0  01:19        3.00
  jd22                 JUNCTION     2.25     3.00   275.00     0  01:20        3.00
  jd23                 JUNCTION     0.71     3.00   281.00     0  01:55        3.00
  jd24                 JUNCTION     0.17     0.34   285.34     0  06:00        0.34
  jd25                 JUNCTION     0.58     3.00   282.00     0  05:16        2.88
  jd26                 JUNCTION     1.12     3.00   288.00     0  01:31        3.00
  jd27                 JUNCTION     0.58     3.00   294.00     0  05:14        3.00
  jd28                 JUNCTION     2.93     3.00   290.00     0  01:14        3.00
  jd29                 JUNCTION     0.12     0.23   299.23     0  06:00        0.23
  jd30                 JUNCTION     0.16     0.28   290.28     0  06:00        0.28
  jd31                 JUNCTION     1.33     3.00   275.00     0  01:24        2.43
  jd32                 JUNCTION     2.92     3.00   275.00     0  01:16        3.00
  jd33                 JUNCTION     0.24     0.49   289.49     0  06:00        0.49
  jd34                 JUNCTION     0.74     3.00   297.00     0  01:37        3.00
  jd35                 JUNCTION     2.93     3.00   292.00     0  01:12        3.00
  jd36                 JUNCTION     1.31     3.00   302.00     0  01:28        3.00
  jd37                 JUNCTION     1.24     3.00   306.00     0  01:27        3.00
  jd38                 JUNCTION     0.80     3.00   300.00     0  01:53        3.00
  jd39                 JUNCTION     2.92     3.00   297.00     0  01:19        3.00
  jd40                 JUNCTION     1.97     3.00   302.00     0  01:29        3.00
  jd41                 JUNCTION     2.90     3.00   296.00     0  01:26        3.00
  jd42                 JUNCTION     0.26     0.57   305.57     0  06:00        0.57
  jd43                 JUNCTION     1.69     3.00   300.00     0  01:21        3.00
  jd44                 JUNCTION     1.84     3.00   286.00     0  01:26        3.00
  jd45                 JUNCTION     2.92     3.00   282.00     0  01:19        3.00
  jd46                 JUNCTION     0.71     3.00   278.00     0  05:18        3.00
  jd47                 JUNCTION     0.19     0.37   315.37     0  06:00        0.37
  jd48                 JUNCTION     0.14     0.27   325.27     0  06:00        0.27
  jd49                 JUNCTION     0.60     3.00   292.00     0  05:17        3.00
  jd50                 JUNCTION     2.93     3.00   278.00     0  01:14        3.00
  jd51                 JUNCTION     2.89     3.00   313.00     0  01:27        3.00
  jd52                 JUNCTION     0.96     3.00   326.00     0  01:34        2.06
  jd53                 JUNCTION     1.31     3.00   325.00     0  01:32        3.00
  jd54                 JUNCTION     0.38     0.89   326.89     0  06:00        0.89
  jd55                 JUNCTION     1.98     3.00   325.00     0  01:24        3.00
  jd56                 JUNCTION     0.25     0.57   327.57     0  06:00        0.57
  jd59                 JUNCTION     2.89     3.00   320.80     0  01:28        3.00
  jd60                 JUNCTION     2.93     3.00   319.00     0  01:14        3.00
  jd61                 JUNCTION     0.18     0.37   329.37     0  06:00        0.37
  jd62                 JUNCTION     0.08     0.15   335.15     0  06:00        0.15
  jd63                 JUNCTION     0.09     0.16   324.16     0  06:00        0.16
  jd64                 JUNCTION     2.74     3.00   321.00     0  01:27        3.00
  jd65                 JUNCTION     2.25     3.00   307.00     0  01:17        3.00
  jd66                 JUNCTION     2.92     3.00   304.00     0  01:16        3.00
  jd69                 JUNCTION     0.30     0.66   333.66     0  06:00        0.66
  jd79                 JUNCTION     2.79     3.00   274.00     0  01:14        3.00
  jd80                 JUNCTION     2.37     3.00   279.00     0  01:15        3.00
  jd81                 JUNCTION     0.19     0.39   288.39     0  06:00        0.39
  jd83                 JUNCTION     2.94     3.00   323.00     0  01:10        3.00
  jd84                 JUNCTION     1.01     3.00   326.00     0  01:27        3.00
  jd85                 JUNCTION     2.93     3.00   324.00     0  01:14        3.00
  jd87                 JUNCTION     2.93     3.00   322.00     0  01:15        3.00
  jd89                 JUNCTION     0.25     3.00   327.00     0  05:43        1.33
  jd90                 JUNCTION     0.18     0.36   328.36     0  06:00        0.36
  jd92                 JUNCTION     0.21     1.95   327.95     0  05:40        0.85
  jd93                 JUNCTION     1.30     3.00   327.00     0  01:29        3.00
  jd94                 JUNCTION     0.81     3.00   329.20     0  01:36        2.34
  jd95                 JUNCTION     0.96     3.00   330.00     0  01:36        2.87
  jd96                 JUNCTION     2.93     3.00   308.00     0  01:12        3.00
  jd97                 JUNCTION     0.99     3.00   330.20     0  01:36        3.00
  jd98                 JUNCTION     0.30     2.37   331.37     0  05:18        1.11
  jd99                 JUNCTION     2.92     3.00   327.00     0  01:16        3.00
  jd101                JUNCTION     0.14     0.25   321.25     0  06:00        0.25
  jd102                JUNCTION     0.62     3.00   327.00     0  01:59        3.00
  jd103                JUNCTION     0.14     0.28   318.28     0  06:00        0.28
  jd106                JUNCTION     2.91     3.00   287.00     0  01:22        3.00
  jd107                JUNCTION     0.27     0.52   332.52     0  06:00        0.52
  jd108                JUNCTION     1.28     2.50   328.50     0  01:14        1.73
  jd109                JUNCTION     0.21     0.45   343.45     0  06:00        0.45
  jd110                JUNCTION     2.93     3.00   327.00     0  01:14        3.00
  jd111                JUNCTION     0.09     0.17   344.17     0  06:00        0.17
  jd112                JUNCTION     0.12     0.22   334.22     0  06:00        0.22
  jd113                JUNCTION     0.13     0.25   348.25     0  06:00        0.25
  jd114                JUNCTION     2.92     3.00   317.00     0  01:18        3.00
  jd117                JUNCTION     1.71     3.00   319.00     0  01:20        3.00
  jd118                JUNCTION     0.11     0.22   330.22     0  06:00        0.22
  jd120                JUNCTION     0.32     3.00   330.00     0  05:19        1.70
  jd121                JUNCTION     0.22     0.49   320.49     0  06:00        0.49
  jd122                JUNCTION     2.92     3.00   276.00     0  01:18        3.00
  jd123                JUNCTION     2.91     3.00   276.20     0  01:20        3.00
  jd124                JUNCTION     2.94     3.00   271.00     0  01:10        3.00
  jd125                JUNCTION     2.09     3.00   278.00     0  01:23        3.00
  jd126                JUNCTION     2.94     3.00   275.00     0  01:12        3.00
  jd135                JUNCTION     0.19     0.44   289.44     0  06:00        0.44
  jd136                JUNCTION     0.56     3.00   344.00     0  05:18        3.00
  psk1                 OUTFALL      0.12     0.22   279.22     0  06:00        0.22
  psk2                 OUTFALL      0.16     0.28   270.28     0  06:00        0.28
  psk3                 OUTFALL      0.41     1.00   272.00     0  05:23        1.00
  psk4                 OUTFALL      0.00     0.00   280.00     0  00:00        0.00
  psk5                 OUTFALL      0.15     0.27   263.27     0  06:00        0.27
  psk6                 OUTFALL      0.11     0.19   259.19     0  06:00        0.19
  psk7                 OUTFALL      0.40     0.66   262.66     0  06:00        0.66
  psk8                 OUTFALL      0.00     0.00   317.00     0  00:00        0.00
  
  
  *******************
  Node Inflow Summary
  *******************
  
  -------------------------------------------------------------------------------------------------
                                  Maximum  Maximum                  Lateral       Total        Flow
                                  Lateral    Total  Time of Max      Inflow      Inflow     Balance
                                   Inflow   Inflow   Occurrence      Volume      Volume       Error
  Node                 Type           CMS      CMS  days hr:min    10^6 ltr    10^6 ltr     Percent
  -------------------------------------------------------------------------------------------------
  jd1                  JUNCTION     1.154    1.502     0  06:00        13.4          20       0.034
  jd2                  JUNCTION     1.793    2.320     0  06:00        20.7        27.8       0.048
  jd3                  JUNCTION     2.149    3.868     0  06:00        24.9        62.4       0.637
  jd4                  JUNCTION     2.589    2.854     0  06:00        29.9        33.3       0.077
  jd5                  JUNCTION     0.754    1.138     0  06:00        8.72        14.4       0.012
  jd6                  JUNCTION     0.872    0.872     0  06:00        10.1        10.1       0.014
  jd7                  JUNCTION     0.440    3.257     0  06:00        5.09        54.8       0.062
  jd8                  JUNCTION     0.611    1.557     0  06:00        7.08          34       0.422
  jd9                  JUNCTION     0.469    1.537     0  06:00        5.43        33.4       0.080
  jd10                 JUNCTION     1.251    1.577     0  06:00        14.5        18.3       0.547
  jd11                 JUNCTION     1.847    1.847     0  06:00        21.4        21.4      -0.002
  jd12                 JUNCTION     1.392    3.116     0  06:00        16.1        35.3       0.385
  jd13                 JUNCTION     2.522    2.522     0  06:00        29.1        29.1       0.011
  jd14                 JUNCTION     2.960    3.363     0  06:00        34.2        38.6       0.040
  jd15                 JUNCTION     1.217    2.176     0  06:00        14.1          30       0.147
  jd16                 JUNCTION     1.308    4.945     0  06:00        15.1        59.4       0.054
  jd17                 JUNCTION     2.737    5.248     0  06:00        31.6        71.4       0.617
  jd18                 JUNCTION     2.169    3.183     0  06:00        25.1        36.6       0.064
  jd19                 JUNCTION     2.014    3.548     0  06:00        23.3        43.9       0.058
  jd20                 JUNCTION     1.674    1.921     0  06:00        19.4        27.3       0.101
  jd21                 JUNCTION     0.777    3.801     0  06:00        8.97        59.9       0.563
  jd22                 JUNCTION     1.368    2.364     0  06:00        15.8        31.9       0.254
  jd23                 JUNCTION     1.352    4.044     0  06:00        15.6        45.4      -0.019
  jd24                 JUNCTION     2.221    2.221     0  06:00        25.7        25.7       0.008
  jd25                 JUNCTION     1.747    2.556     0  06:00        20.2        29.4       0.044
  jd26                 JUNCTION     2.542    3.802     0  06:00        29.4        47.1       0.032
  jd27                 JUNCTION     2.619    3.242     0  06:00        30.3        45.1       0.046
  jd28                 JUNCTION     3.575    4.487     0  06:00        41.3          55       0.240
  jd29                 JUNCTION     1.431    1.431     0  06:00        16.5        16.5      -0.014
  jd30                 JUNCTION     1.490    3.500     0  06:00        17.2        48.3       0.025
  jd31                 JUNCTION     0.996    1.814     0  06:00        11.5          24       1.904
  jd32                 JUNCTION     2.019    5.352     0  06:00        23.3        84.5       0.289
  jd33                 JUNCTION     1.988    3.055     0  06:00          23        38.2       0.028
  jd34                 JUNCTION     2.458    2.458     0  06:00        28.5        28.5       0.009
  jd35                 JUNCTION     2.243    4.424     0  06:00          26        71.3       0.183
  jd36                 JUNCTION     3.817    4.880     0  06:00        44.1        64.9       0.047
  jd37                 JUNCTION     4.011    4.011     0  06:00        46.4        46.4       0.051
  jd38                 JUNCTION     3.683    4.490     0  06:00        42.6        62.3       0.067
  jd39                 JUNCTION     2.550    6.069     0  06:00        29.5          96       0.524
  jd40                 JUNCTION     4.349    6.541     0  06:00        50.3         101       0.069
  jd41                 JUNCTION     3.054    9.420     0  06:00        35.3         125       1.711
  jd42                 JUNCTION     4.014    4.398     0  06:00        46.4        50.9       0.062
  jd43                 JUNCTION     4.491    6.965     0  06:00        52.1        88.1       0.088
  jd44                 JUNCTION     6.018    8.894     0  06:00        69.6         133       0.062
  jd45                 JUNCTION     2.449    4.674     0  06:00        28.3        83.7       0.382
  jd46                 JUNCTION     1.116    1.116     0  06:00        12.9        12.9       0.088
  jd47                 JUNCTION     3.590    3.590     0  06:00        41.5        41.5      -0.071
  jd48                 JUNCTION     0.993    0.993     0  06:00        11.5        11.5      -0.003
  jd49                 JUNCTION     4.887    4.887     0  06:00        56.5        56.5       0.028
  jd50                 JUNCTION     5.063    8.993     0  06:00        58.6         133       0.313
  jd51                 JUNCTION     1.057    4.754     0  06:00        12.2        56.1       2.530
  jd52                 JUNCTION     2.159    5.491     0  05:07          25        65.9       0.048
  jd53                 JUNCTION     1.202    4.578     0  06:00        13.9        62.1       0.036
  jd54                 JUNCTION     0.645    3.195     0  06:00        7.45        37.1       0.062
  jd55                 JUNCTION     1.174    5.217     0  06:00        13.6        51.4       1.442
  jd56                 JUNCTION     0.713    2.087     0  06:00        8.26        24.1       0.029
  jd59                 JUNCTION     0.708    3.276     0  06:00        8.19        39.7       1.967
  jd60                 JUNCTION     1.268    2.693     0  06:00        14.7        31.2       0.407
  jd61                 JUNCTION     1.424    1.600     0  06:00        16.5        18.6       0.019
  jd62                 JUNCTION     0.572    0.572     0  06:00        6.66        6.66      -0.006
  jd63                 JUNCTION     0.786    0.786     0  06:00         9.1         9.1      -0.003
  jd64                 JUNCTION     0.662    1.635     0  06:00        7.66        18.9       1.990
  jd65                 JUNCTION    11.371   11.371     0  06:00         132         132       0.031
  jd66                 JUNCTION     1.486    4.309     0  06:00        17.3        50.1       0.632
  jd69                 JUNCTION     2.747    2.823     0  06:00        31.9        32.8       0.021
  jd79                 JUNCTION     2.675    3.591     0  06:00        30.9        50.2       0.347
  jd80                 JUNCTION     2.972    3.580     0  06:00        34.4        44.3       0.158
  jd81                 JUNCTION     2.259    2.259     0  06:00        26.1        26.1       0.002
  jd83                 JUNCTION     2.351    2.929     0  06:00        27.3        35.6       0.242
  jd84                 JUNCTION     2.988    2.988     0  06:00        34.7        34.7       0.013
  jd85                 JUNCTION     0.679    1.110     0  06:00        7.86        12.9       0.655
  jd87                 JUNCTION     0.556    1.339     0  06:00        6.43        15.5       0.480
  jd89                 JUNCTION     0.649    0.649     0  06:00         7.5         7.5       0.012
  jd90                 JUNCTION     0.661    0.661     0  06:00        7.65        7.65       0.002
  jd92                 JUNCTION     0.556    0.556     0  06:00        6.43        6.43      -0.001
  jd93                 JUNCTION     1.200    2.173     0  06:00        13.9        28.7       0.077
  jd94                 JUNCTION     0.076    1.109     0  05:09       0.881        14.8      -0.087
  jd95                 JUNCTION     0.145    1.042     0  05:09        1.67          14       0.175
  jd96                 JUNCTION     1.084    1.446     0  06:00        12.6        16.8       0.571
  jd97                 JUNCTION     1.171    1.171     0  06:00        13.6        13.6       0.031
  jd98                 JUNCTION     0.653    0.653     0  06:00        7.56        7.56       0.019
  jd99                 JUNCTION     0.314    0.641     0  06:00        3.65        9.58       0.578
  jd101                JUNCTION     0.856    1.557     0  06:00        9.91        19.4      -0.039
  jd102                JUNCTION     0.853    0.853     0  06:00        9.86        9.86       0.035
  jd103                JUNCTION     0.587    0.587     0  06:00        6.79        6.79      -0.006
  jd106                JUNCTION     0.459    2.593     0  06:00        5.32        30.9       1.258
  jd107                JUNCTION     0.663    2.181     0  06:00        7.67        25.2       0.056
  jd108                JUNCTION     0.721    0.721     0  06:00        8.38        8.39       0.765
  jd109                JUNCTION     1.206    1.206     0  06:00        13.9        13.9       0.007
  jd110                JUNCTION     0.915    1.363     0  06:00        10.7        15.9       0.968
  jd111                JUNCTION     0.760    0.760     0  06:00        8.84        8.84      -0.013
  jd112                JUNCTION     0.894    2.444     0  06:00        10.3        28.8       0.016
  jd113                JUNCTION     0.601    0.601     0  06:00        7.01        7.01      -0.016
  jd114                JUNCTION     0.725    4.442     0  06:00        8.39        83.3       0.368
  jd117                JUNCTION     0.669    2.164     0  06:00        7.73        25.3       0.605
  jd118                JUNCTION     0.612    0.612     0  06:00        7.08        7.08      -0.008
  jd120                JUNCTION     0.764    0.764     0  06:00        8.84        8.84       0.000
  jd121                JUNCTION     0.945    0.945     0  06:00          11          11       0.009
  jd122                JUNCTION     2.242    6.852     0  06:00        25.9        99.4       0.556
  jd123                JUNCTION     2.305    4.861     0  06:00        26.7          83       0.828
  jd124                JUNCTION     3.330    4.403     0  06:00        38.5        69.1       0.085
  jd125                JUNCTION     3.241    4.916     0  06:00        37.4        82.9       0.028
  jd126                JUNCTION     4.709    5.572     0  06:00        54.5        71.3       0.139
  jd135                JUNCTION     1.193    1.193     0  06:00        13.8        13.8       0.007
  jd136                JUNCTION     0.989    1.590     0  06:00        11.5        18.5       0.055
  psk1                 OUTFALL      0.000    1.190     0  06:00           0        13.8       0.000
  psk2                 OUTFALL      0.000    2.683     0  06:00           0        36.3       0.000
  psk3                 OUTFALL      0.000    4.941     0  06:00           0        59.3       0.000
  psk4                 OUTFALL      0.000    0.000     0  00:00           0           0       0.000 ltr
  psk5                 OUTFALL      0.000    0.975     0  06:00           0          13       0.000
  psk6                 OUTFALL      0.000    0.873     0  06:00           0        11.1       0.000
  psk7                 OUTFALL      0.000    3.257     0  06:00           0        54.7       0.000
  psk8                 OUTFALL      0.000    0.000     0  00:00           0           0       0.000 ltr
  
  
  **********************
  Node Surcharge Summary
  **********************
  
  Surcharging occurs when water rises above the top of the highest conduit.
  ---------------------------------------------------------------------
                                               Max. Height   Min. Depth
                                   Hours       Above Crown    Below Rim
  Node                 Type      Surcharged         Meters       Meters
  ---------------------------------------------------------------------
  jd2                  JUNCTION        2.89          2.200        0.000
  jd3                  JUNCTION       12.67          2.200        0.000
  jd4                  JUNCTION        6.87          2.200        0.000
  jd8                  JUNCTION        7.89          2.200        0.000
  jd9                  JUNCTION        6.98          2.200        0.000
  jd10                 JUNCTION       12.74          2.400        0.000
  jd12                 JUNCTION       12.74          2.400        0.000
  jd14                 JUNCTION        2.63          2.400        0.000
  jd17                 JUNCTION        8.01          2.200        0.000
  jd18                 JUNCTION        2.58          2.000        0.000
  jd19                 JUNCTION        6.71          2.200        0.000
  jd21                 JUNCTION       12.68          2.200        0.000
  jd22                 JUNCTION       12.66          2.400        0.000
  jd23                 JUNCTION        1.64          2.000        0.000
  jd25                 JUNCTION        1.00          2.000        0.000
  jd26                 JUNCTION        2.70          2.400        0.000
  jd27                 JUNCTION        1.19          2.400        0.000
  jd28                 JUNCTION       12.76          2.400        0.000
  jd31                 JUNCTION       12.59          2.200        0.000
  jd32                 JUNCTION       12.72          2.200        0.000
  jd34                 JUNCTION        2.33          2.400        0.000
  jd35                 JUNCTION       12.79          2.400        0.000
  jd36                 JUNCTION        3.44          2.400        0.000
  jd37                 JUNCTION        3.08          2.400        0.000
  jd38                 JUNCTION        1.98          2.000        0.000
  jd39                 JUNCTION       12.68          2.000        0.000
  jd40                 JUNCTION        6.58          2.200        0.000
  jd41                 JUNCTION       12.56          1.000        0.000
  jd43                 JUNCTION        4.62          2.200        0.000
  jd44                 JUNCTION        5.75          2.000        0.000
  jd45                 JUNCTION       12.68          2.000        0.000
  jd46                 JUNCTION        1.74          2.200        0.000
  jd49                 JUNCTION        0.96          2.200        0.000
  jd50                 JUNCTION       12.76          2.200        0.000
  jd51                 JUNCTION       12.55          1.350        0.000
  jd52                 JUNCTION        2.86          1.500        0.000
  jd53                 JUNCTION        3.11          1.800        0.000
  jd55                 JUNCTION        6.62          1.500        0.000
  jd59                 JUNCTION       12.53          1.500        0.000
  jd60                 JUNCTION       12.75          2.400        0.000
  jd64                 JUNCTION       12.54          1.800        0.000
  jd65                 JUNCTION        7.23          2.400        0.000
  jd66                 JUNCTION       12.72          2.200        0.000
  jd79                 JUNCTION       12.75          2.400        0.000
  jd80                 JUNCTION        8.35          2.400        0.000
  jd83                 JUNCTION       12.82          2.400        0.000
  jd84                 JUNCTION        2.57          2.400        0.000
  jd85                 JUNCTION       12.75          2.400        0.000
  jd87                 JUNCTION       12.74          2.400        0.000
  jd89                 JUNCTION        0.32          2.400        0.000
  jd92                 JUNCTION        0.36          1.348        1.052
  jd93                 JUNCTION        3.27          2.200        0.000
  jd94                 JUNCTION        2.66          2.200        0.000
  jd95                 JUNCTION        2.48          2.200        0.000
  jd96                 JUNCTION       12.79          2.200        0.000
  jd97                 JUNCTION        2.50          2.200        0.000
  jd98                 JUNCTION        0.74          1.766        0.634
  jd99                 JUNCTION       12.72          2.400        0.000
  jd102                JUNCTION        1.33          2.400        0.000
  jd106                JUNCTION       12.63          2.000        0.000
  jd108                JUNCTION       12.75          1.505        0.495
  jd110                JUNCTION       12.76          2.000        0.000
  jd114                JUNCTION       12.70          2.000        0.000
  jd117                JUNCTION       12.66          2.200        0.000
  jd120                JUNCTION        0.75          2.400        0.000
  jd122                JUNCTION       12.69          2.200        0.000
  jd123                JUNCTION       12.67          2.200        0.000
  jd124                JUNCTION       12.83          2.400        0.000
  jd125                JUNCTION        6.86          2.200        0.000
  jd126                JUNCTION       12.80          2.400        0.000
  jd136                JUNCTION        0.76          2.200        0.000
  
  
  *********************
  Node Flooding Summary
  *********************
  
  Flooding refers to all water that overflows a node, whether it ponds or not.
  --------------------------------------------------------------------------
                                                             Total   Maximum
                                 Maximum   Time of Max       Flood    Ponded
                        Hours       Rate    Occurrence      Volume     Depth
  Node                 Flooded       CMS   days hr:min    10^6 ltr    Meters
  --------------------------------------------------------------------------
  jd2                     2.51     1.111      0  06:00       4.817     0.000
  jd3                    12.67     3.868      0  06:00      61.992     0.000
  jd4                     6.65     2.344      0  06:00      18.646     0.000
  jd8                     5.90     0.621      0  01:19       3.771     0.000
  jd9                     5.52     0.872      0  01:21       6.404     0.000
  jd10                   12.74     1.577      0  06:00      18.234     0.000
  jd12                   12.74     3.116      0  06:00      35.195     0.000
  jd14                    2.41     1.541      0  06:00       5.850     0.000
  jd17                    6.89     4.419      0  06:00      44.417     0.000
  jd18                    2.37     1.659      0  06:00       7.421     0.000
  jd19                    4.05     2.480      0  06:00      15.921     0.000
  jd21                   12.67     3.801      0  06:00      59.337     0.000
  jd22                    4.21     1.541      0  06:00      11.067     0.000
  jd23                    0.87     1.028      0  06:00       2.725     0.000
  jd25                    0.01     0.936      0  05:16       0.019     0.000
  jd26                    2.56     1.906      0  06:00       9.385     0.000
  jd27                    0.80     0.417      0  05:14       0.811     0.000
  jd28                   12.76     4.487      0  06:00      54.915     0.000
  jd31                    0.01     1.307      0  01:24       0.015     0.000
  jd32                   12.72     5.352      0  06:00      84.270     0.000
  jd34                    1.01     0.643      0  06:00       1.881     0.000
  jd35                   12.79     4.424      0  06:00      71.215     0.000
  jd36                    2.95     2.823      0  06:00      16.118     0.000
  jd37                    2.87     2.664      0  06:00      14.255     0.000
  jd38                    0.73     0.719      0  05:12       0.654     0.000
  jd39                   12.68     6.069      0  06:00      95.546     0.000
  jd40                    4.97     3.979      0  06:00      32.454     0.000
  jd41                   12.55     9.420      0  06:00     122.988     0.000
  jd43                    4.40     5.133      0  06:00      39.010     0.000
  jd44                    4.03     4.994      0  06:00      32.166     0.000
  jd45                   12.68     4.674      0  06:00      83.337     0.000
  jd46                    0.86     0.301      0  05:18       0.710     0.000
  jd49                    0.84     1.004      0  06:00       2.357     0.000
  jd50                   12.76     8.993      0  06:00     132.669     0.000
  jd51                   12.55     4.754      0  06:00      54.686     0.000
  jd52                    0.03     3.217      0  05:07       0.166     0.000
  jd53                    2.51     2.276      0  06:00       9.865     0.000
  jd55                    2.81     5.217      0  06:00      33.135     0.000
  jd59                   12.53     3.276      0  06:00      38.915     0.000
  jd60                   12.75     2.693      0  06:00      31.074     0.000
  jd64                    0.85     0.245      0  01:27       0.478     0.000
  jd65                    7.16    10.278      0  06:00      96.720     0.000
  jd66                   12.72     4.309      0  06:00      49.778     0.000
  jd79                    7.86     3.344      0  06:00      42.026     0.000
  jd80                    7.29     3.422      0  06:00      37.840     0.000
  jd83                   12.82     2.929      0  06:00      35.562     0.000
  jd84                    1.72     1.148      0  06:00       4.004     0.000
  jd85                   12.75     1.110      0  06:00      12.807     0.000
  jd87                   12.74     1.339      0  06:00      15.475     0.000
  jd89                    0.01     0.035      0  05:43       0.000     0.000
  jd93                    2.42     0.997      0  06:00       5.217     0.000
  jd94                    0.01     0.802      0  05:09       0.018     0.000
  jd95                    0.02     0.202      0  01:36       0.004     0.000
  jd96                   12.79     1.446      0  06:00      16.723     0.000
  jd97                    1.02     0.418      0  06:00       1.268     0.000
  jd99                   12.72     0.641      0  06:00       9.525     0.000
  jd102                   0.89     0.152      0  06:00       0.391     0.000
  jd106                  12.63     2.593      0  06:00      30.521     0.000
  jd110                  12.76     1.363      0  06:00      15.761     0.000
  jd114                  12.70     4.442      0  06:00      83.022     0.000
  jd117                   1.48     1.122      0  01:20       2.435     0.000
  jd120                   0.01     0.037      0  05:19       0.000     0.000
  jd122                  12.69     6.852      0  06:00      98.744     0.000
  jd123                   9.68     4.547      0  06:00      68.644     0.000
  jd124                  12.83     4.403      0  06:00      69.070     0.000
  jd125                   4.51     2.530      0  06:00      17.608     0.000
  jd126                  12.80     5.572      0  06:00      71.196     0.000
  jd136                   0.71     0.157      0  05:18       0.089     0.000
  
  
  ***********************
  Outfall Loading Summary
  ***********************
  
  -----------------------------------------------------------
                         Flow       Avg       Max       Total
                         Freq      Flow      Flow      Volume
  Outfall Node           Pcnt       CMS       CMS    10^6 ltr
  -----------------------------------------------------------
  psk1                  98.31     0.427     1.190      13.825
  psk2                  98.29     1.112     2.683      36.269
  psk3                  98.32     1.829     4.941      59.325
  psk4                   0.00     0.000     0.000       0.000
  psk5                  98.32     0.395     0.975      13.007
  psk6                  98.29     0.338     0.873      11.052
  psk7                  98.32     1.582     3.257      54.721
  psk8                   0.00     0.000     0.000       0.000
  -----------------------------------------------------------
  System                73.73     5.683     0.000     188.198
  
  
  ********************
  Link Flow Summary
  ********************
  
  -----------------------------------------------------------------------------
                                 Maximum  Time of Max   Maximum    Max/    Max/
                                  |Flow|   Occurrence   |Veloc|    Full    Full
  Link                 Type          CMS  days hr:min     m/sec    Flow   Depth
  -----------------------------------------------------------------------------
  GQ1                  CONDUIT     0.356     0  01:40      1.96    0.93    0.72
  GQ2                  CONDUIT     1.828     0  06:00      2.78    0.87    0.81
  GQ3                  CONDUIT     1.190     0  06:00      7.55    0.05    0.14
  GQ4                  CONDUIT     0.510     0  05:12      1.80    1.00    1.00
  GQ5                  CONDUIT     1.208     0  01:50      2.40    1.00    1.00
  GQ6                  CONDUIT     0.527     0  06:00      1.48    0.24    0.67
  GQ7                  CONDUIT     1.694     0  01:23      3.64    1.01    1.00
  GQ8                  CONDUIT     1.045     0  06:01      2.08    1.00    1.00
  GQ9                  CONDUIT     2.837     0  05:32      5.73    1.00    1.00
  GQ10                 CONDUIT     1.134     0  08:32      4.10    1.04    1.00
  GQ11                 CONDUIT     0.385     0  06:00      2.21    0.41    0.70
  GQ12                 CONDUIT     0.485     0  06:00      2.11    0.53    0.76
  GQ13                 CONDUIT     0.265     0  06:00      0.81    0.13    0.62
  GQ14                 CONDUIT     0.151     0  06:00      1.30    0.21    0.28
  GQ15                 CONDUIT     0.248     0  05:16      4.40    1.00    0.82
  GQ16                 CONDUIT     2.009     0  06:00      4.10    0.97    0.64
  GQ17                 CONDUIT     0.721     0  06:00      2.40    0.23    0.58
  GQ18                 CONDUIT     1.115     0  06:00      2.50    5.03    0.91
  GQ19                 CONDUIT     0.982     0  06:00      2.90    0.12    0.45
  GQ20                 CONDUIT     0.215     0  06:00      0.51    0.12    0.61
  GQ21                 CONDUIT     0.799     0  06:00      1.57    0.25    0.67
  GQ22                 CONDUIT     0.809     0  06:00      1.90    0.25    0.67
  GQ23                 CONDUIT     1.912     0  06:00      2.43    0.94    1.00
  GQ24                 CONDUIT     2.020     0  05:24      4.02    1.00    1.00
  GQ25                 CONDUIT     1.068     0  06:00      4.12    1.20    0.91
  GQ26                 CONDUIT     0.786     0  05:15      2.99    0.92    0.91
  GQ27                 CONDUIT     0.997     0  05:24      3.52    1.00    1.00
  GQ28                 CONDUIT     0.387     0  06:00      0.89    0.41    0.81
  GQ29                 CONDUIT     1.814     0  06:00      3.61    0.85    1.00
  GQ30                 CONDUIT     0.824     0  01:40      2.91    1.00    1.00
  GQ31                 CONDUIT     0.747     0  05:30      2.64    1.00    1.00
  GQ32                 CONDUIT     0.739     0  05:13      2.94    1.19    1.00
  GQ33                 CONDUIT     1.434     0  06:38      5.07    1.00    1.00
  GQ34                 CONDUIT     0.529     0  05:31      1.92    0.83    0.97
  GQ35                 CONDUIT     0.712     0  01:28      2.53    1.32    1.00
  GQ36                 CONDUIT     0.963     0  01:27      3.41    1.19    1.00
  GQ37                 CONDUIT     0.699     0  05:29      2.47    1.00    1.00
  GQ38                 CONDUIT     0.213     0  06:00      0.95    0.30    0.74
  GQ39                 CONDUIT     0.782     0  01:58      2.76    1.00    1.00
  GQ40                 CONDUIT     0.804     0  05:31      2.84    1.00    1.00
  GQ41                 CONDUIT     2.160     0  05:40      2.75    1.00    1.00
  GQ42                 CONDUIT     1.359     0  05:28      2.70    1.00    1.00
  GQ43                 CONDUIT     2.306     0  05:04      4.70    1.03    1.00
  GQ44                 CONDUIT     0.946     0  01:42      1.88    1.00    1.00
  GQ45                 CONDUIT     1.534     0  06:00      3.52    0.62    0.81
  GQ46                 CONDUIT     1.068     0  01:50      2.26    1.00    1.00
  GQ47                 CONDUIT     0.326     0  06:00      1.56    0.31    0.69
  GQ48                 CONDUIT     0.324     0  06:00      1.56    0.31    0.69
  GQ49                 CONDUIT     1.400     0  06:00      6.09    0.53    0.76
  GQ50                 CONDUIT     0.403     0  06:00      1.75    0.53    0.76
  GQ51                 CONDUIT     0.995     0  01:44      3.59    1.52    1.00
  GQ52                 CONDUIT     0.856     0  06:09      1.70    1.14    1.00
  GQ53                 CONDUIT     2.225     0  05:40      2.83    1.00    1.00
  GQ54                 CONDUIT     0.817     0  06:00      3.34    0.70    0.81
  GQ55                 CONDUIT     0.608     0  06:00      2.77    0.41    0.72
  GQ56                 CONDUIT     2.001     0  01:25      4.31    1.09    1.00
  GQ57                 CONDUIT     1.213     0  06:00      2.65    0.79    0.86
  GQ58                 CONDUIT     2.660     0  06:00      5.81    0.83    0.86
  GQ59                 CONDUIT     1.203     0  01:54      2.39    1.00    1.00
  GQ60                 CONDUIT     2.741     0  05:07      1.74    0.66    1.00
  GQ61                 CONDUIT     0.477     0  06:00      0.68    0.06    0.58
  GQ62                 CONDUIT     1.086     0  06:00      0.83    0.11    0.61
  GQ63                 CONDUIT     2.504     0  06:00      1.71    0.07    0.59
  GQ64                 CONDUIT     0.177     0  06:00      1.60    0.14    0.43
  GQ65                 CONDUIT     0.076     0  06:00      0.41    0.14    0.63
  GQ66                 CONDUIT     0.312     0  06:00      0.98    0.09    0.60
  GQ67                 CONDUIT     1.442     0  06:00      1.28    1.00    1.00
  GQ68                 CONDUIT     1.760     0  06:00      2.66    0.56    0.79
  GQ69                 CONDUIT     2.823     0  06:00      5.86    1.01    0.91
  GQ70                 CONDUIT     0.873     0  06:00      9.45    0.13    0.24
  GQ71                 CONDUIT     0.975     0  06:00      6.69    0.24    0.33
  GQ72                 CONDUIT     3.257     0  06:00      5.89    0.78    0.66
  GQ73                 CONDUIT     2.683     0  06:00     14.69    0.17    0.28
  GQ74                 CONDUIT     0.637     0  06:00      1.59    0.12    0.57
  GQ75                 CONDUIT     0.604     0  06:00      1.13    0.18    0.64
  GQ76                 CONDUIT     4.941     0  06:00      6.71    1.07    0.95
  GQ77                 CONDUIT     0.000     0  00:00      0.00    0.00    0.36
  GQ78                 CONDUIT     0.916     0  05:31      3.24    1.00    1.00
  GQ79                 CONDUIT     0.254     0  05:14      1.08    0.55    0.91
  GQ80                 CONDUIT     0.608     0  06:07      2.15    1.00    1.00
  GQ81                 CONDUIT     0.605     0  01:20      2.27    3.84    1.00
  GQ82                 CONDUIT     1.087     0  06:00      4.36    0.75    0.82
  GQ83                 CONDUIT     1.172     0  06:00      4.71    0.75    0.82
  GQ84                 CONDUIT     1.303     0  01:26      4.71    1.03    1.00
  GQ85                 CONDUIT     0.579     0  05:25      2.05    1.00    1.00
  GQ86                 CONDUIT     0.319     0  06:00      1.72    0.14    0.63
  GQ87                 CONDUIT     0.112     0  06:00      0.59    0.16    0.64
  GQ88                 CONDUIT     0.783     0  06:00      3.20    0.70    0.81
  GQ89                 CONDUIT     0.649     0  06:00      2.31    0.85    1.00
  GQ90                 CONDUIT     0.661     0  06:00      2.73    0.67    0.80
  GQ91                 CONDUIT     0.558     0  05:40      1.99    0.68    1.00
  GQ92                 CONDUIT     1.042     0  05:09      2.22    1.50    1.00
  GQ93                 CONDUIT     0.973     0  06:00      1.94    0.84    1.00
  GQ94                 CONDUIT     1.244     0  01:30      2.48    1.48    1.00
  GQ95                 CONDUIT     0.362     0  06:00      1.14    0.09    0.60
  GQ96                 CONDUIT     0.922     0  05:09      1.83    1.57    1.00
  GQ97                 CONDUIT     0.653     0  06:00      2.32    1.18    0.98
  GQ98                 CONDUIT     0.327     0  06:00      1.17    0.46    0.98
  GQ99                 CONDUIT     1.080     0  06:00      1.12    0.06    0.58
  GQ100                CONDUIT     0.701     0  06:00      3.31    1.20    0.71
  GQ101                CONDUIT     0.587     0  06:00      2.65    0.44    0.73
  GQ102                CONDUIT     2.275     0  06:00      5.24    0.69    0.81
  GQ103                CONDUIT     0.644     0  06:00      2.28    0.99    1.00
  GQ104                CONDUIT     1.389     0  06:28      5.01    1.01    1.00
  GQ105                CONDUIT     0.960     0  01:20      1.91    3.05    1.00
  GQ106                CONDUIT     0.613     0  06:00      2.58    0.61    0.78
  GQ107                CONDUIT     1.114     0  05:15      3.94    1.00    1.00
  GQ108                CONDUIT     0.829     0  01:58      1.65    1.00    1.00
  GQ109                CONDUIT     0.455     0  06:00      1.75    0.62    0.87
  GQ110                CONDUIT     0.793     0  06:00      1.57    0.12    0.61
  GQ111                CONDUIT     0.737     0  06:00      2.83    0.67    0.87
  GQ112                CONDUIT     2.181     0  06:00      3.52    0.39    0.59
  GQ113                CONDUIT     1.205     0  06:00      4.92    0.91    0.81
  GQ114                CONDUIT     0.721     0  06:00      1.09    0.30    0.79
  GQ115                CONDUIT     0.312     0  06:00      1.18    0.04    0.29
  GQ116                CONDUIT     0.448     0  06:00      0.94    0.06    0.58
  GQ117                CONDUIT     1.550     0  06:00      4.84    0.97    0.64
  GQ118                CONDUIT     0.601     0  06:00      3.24    0.20    0.65
  GQ119                CONDUIT     2.302     0  05:23      4.58    1.00    1.00
  GQ120                CONDUIT     0.000     0  00:00      0.00    0.00    0.50
  GQ121                CONDUIT     1.414     0  06:12      2.81    1.00    1.00
  GQ122                CONDUIT     0.884     0  06:00      2.62    0.16    0.64
  GQ123                CONDUIT     0.612     0  06:00      2.96    0.29    0.69
  GQ124                CONDUIT     0.370     0  06:00      1.21    0.16    0.64
  GQ125                CONDUIT     0.764     0  06:00      2.70    0.86    1.00
  GQ126                CONDUIT     0.945     0  06:00      3.50    0.90    0.91
  GQ127                CONDUIT     0.820     0  02:22      1.67    1.05    1.00
  GQ128                CONDUIT     3.195     0  06:00      3.16    0.70    0.87
  GQ129                CONDUIT     1.313     0  05:25      2.61    1.00    1.00
  GQ130                CONDUIT     1.073     0  01:33      3.79    1.00    1.00
  GQ131                CONDUIT     0.862     0  05:19      3.05    1.00    1.00
  
  
  ***************************
  Flow Classification Summary
  ***************************
  
  -------------------------------------------------------------------------------------
                      Adjusted    ---------- Fraction of Time in Flow Class ---------- 
                       /Actual         Up    Down  Sub   Sup   Up    Down  Norm  Inlet 
  Conduit               Length    Dry  Dry   Dry   Crit  Crit  Crit  Crit  Ltd   Ctrl  
  -------------------------------------------------------------------------------------
  GQ1                     1.00   0.02  0.00  0.00  0.29  0.69  0.00  0.00  0.01  0.00
  GQ2                     1.00   0.02  0.00  0.00  0.10  0.88  0.00  0.00  0.90  0.00
  GQ3                     1.00   0.02  0.00  0.00  0.00  0.98  0.00  0.00  0.12  0.00
  GQ4                     1.00   0.02  0.00  0.00  0.98  0.00  0.00  0.00  0.38  0.00
  GQ5                     1.00   0.02  0.00  0.00  0.98  0.00  0.00  0.00  0.59  0.00
  GQ6                     1.00   0.02  0.00  0.00  0.97  0.01  0.00  0.00  0.93  0.00
  GQ7                     1.00   0.02  0.00  0.00  0.70  0.28  0.00  0.00  0.03  0.00
  GQ8                     1.00   0.02  0.00  0.00  0.98  0.00  0.00  0.00  0.76  0.00
  GQ9                     1.00   0.02  0.00  0.00  0.50  0.48  0.00  0.00  0.84  0.00
  GQ10                    1.00   0.02  0.00  0.00  0.92  0.06  0.00  0.00  0.40  0.00
  GQ11                    1.00   0.02  0.00  0.00  0.36  0.62  0.00  0.00  0.91  0.00
  GQ12                    1.00   0.02  0.00  0.00  0.92  0.06  0.00  0.00  0.93  0.00
  GQ13                    1.00   0.02  0.00  0.00  0.98  0.00  0.00  0.00  0.93  0.00
  GQ14                    1.00   0.02  0.00  0.00  0.85  0.14  0.00  0.00  0.00  0.00
  GQ15                    1.00   0.02  0.00  0.00  0.00  0.98  0.00  0.00  0.01  0.00
  GQ16                    1.00   0.02  0.00  0.00  0.00  0.98  0.00  0.00  0.00  0.00
  GQ17                    1.00   0.02  0.00  0.00  0.62  0.36  0.00  0.00  0.93  0.00
  GQ18                    1.00   0.02  0.00  0.00  0.72  0.26  0.00  0.00  0.01  0.00
  GQ19                    1.00   0.02  0.00  0.00  0.43  0.56  0.00  0.00  0.93  0.00
  GQ20                    1.00   0.02  0.00  0.00  0.98  0.00  0.00  0.00  0.93  0.00
  GQ21                    1.00   0.02  0.00  0.00  0.82  0.17  0.00  0.00  0.93  0.00
  GQ22                    1.00   0.02  0.00  0.00  0.22  0.77  0.00  0.00  0.93  0.00
  GQ23                    1.00   0.02  0.00  0.00  0.29  0.69  0.00  0.00  0.21  0.00
  GQ24                    1.00   0.02  0.00  0.00  0.92  0.06  0.00  0.00  0.72  0.00
  GQ25                    1.00   0.02  0.00  0.00  0.00  0.98  0.00  0.00  0.00  0.00
  GQ26                    1.00   0.02  0.00  0.00  0.01  0.97  0.00  0.00  0.84  0.00
  GQ27                    1.00   0.02  0.00  0.00  0.83  0.16  0.00  0.00  0.62  0.00
  GQ28                    1.00   0.02  0.00  0.00  0.98  0.00  0.00  0.00  0.71  0.00
  GQ29                    1.00   0.02  0.00  0.00  0.98  0.00  0.00  0.00  0.02  0.00
  GQ30                    1.00   0.02  0.00  0.00  0.97  0.01  0.00  0.00  0.01  0.00
  GQ31                    1.00   0.02  0.00  0.00  0.98  0.00  0.00  0.00  0.71  0.00
  GQ32                    1.00   0.02  0.00  0.00  0.20  0.78  0.00  0.00  0.01  0.00
  GQ33                    1.00   0.02  0.00  0.00  0.66  0.33  0.00  0.00  0.51  0.00
  GQ34                    1.00   0.02  0.00  0.00  0.97  0.01  0.00  0.00  0.75  0.00
  GQ35                    1.00   0.02  0.00  0.00  0.49  0.49  0.00  0.00  0.62  0.00
  GQ36                    1.00   0.02  0.00  0.00  0.38  0.61  0.00  0.00  0.68  0.00
  GQ37                    1.00   0.02  0.00  0.00  0.98  0.00  0.00  0.00  0.64  0.00
  GQ38                    1.00   0.02  0.00  0.00  0.98  0.00  0.00  0.00  0.71  0.00
  GQ39                    1.00   0.02  0.00  0.00  0.97  0.02  0.00  0.00  0.64  0.00
  GQ40                    1.00   0.02  0.00  0.00  0.33  0.66  0.00  0.00  0.74  0.00
  GQ41                    1.00   0.02  0.00  0.00  0.98  0.00  0.00  0.00  0.52  0.00
  GQ42                    1.00   0.02  0.00  0.00  0.98  0.00  0.00  0.00  0.43  0.00
  GQ43                    1.00   0.02  0.00  0.00  0.40  0.58  0.00  0.00  0.67  0.00
  GQ44                    1.00   0.02  0.00  0.00  0.98  0.00  0.00  0.00  0.38  0.00
  GQ45                    1.00   0.02  0.00  0.00  0.42  0.56  0.00  0.00  0.82  0.00
  GQ46                    1.00   0.02  0.00  0.00  0.75  0.23  0.00  0.00  0.41  0.00
  GQ47                    1.00   0.02  0.00  0.00  0.98  0.00  0.00  0.00  0.93  0.00
  GQ48                    1.00   0.02  0.00  0.00  0.98  0.00  0.00  0.00  0.93  0.00
  GQ49                    1.00   0.02  0.00  0.00  0.48  0.50  0.00  0.00  0.93  0.00
  GQ50                    1.00   0.02  0.00  0.00  0.98  0.00  0.00  0.00  0.93  0.00
  GQ51                    1.00   0.02  0.00  0.00  0.30  0.68  0.00  0.00  0.60  0.00
  GQ52                    1.00   0.02  0.00  0.00  0.98  0.00  0.00  0.00  0.75  0.00
  GQ53                    1.00   0.02  0.00  0.00  0.98  0.00  0.00  0.00  0.44  0.00
  GQ54                    1.00   0.02  0.00  0.00  0.67  0.32  0.00  0.00  0.93  0.00
  GQ55                    1.00   0.02  0.00  0.00  0.77  0.21  0.00  0.00  0.93  0.00
  GQ56                    1.00   0.02  0.00  0.00  0.55  0.43  0.00  0.00  0.52  0.00
  GQ57                    1.00   0.02  0.00  0.00  0.98  0.00  0.00  0.00  0.87  0.00
  GQ58                    1.00   0.02  0.00  0.00  0.56  0.42  0.00  0.00  0.89  0.00
  GQ59                    1.00   0.02  0.00  0.00  0.98  0.00  0.00  0.00  0.44  0.00
  GQ60                    1.00   0.02  0.00  0.00  0.98  0.00  0.00  0.00  0.03  0.00
  GQ61                    1.00   0.02  0.00  0.00  0.98  0.00  0.00  0.00  0.93  0.00
  GQ62                    1.00   0.02  0.00  0.00  0.98  0.00  0.00  0.00  0.93  0.00
  GQ63                    1.00   0.02  0.00  0.00  0.97  0.01  0.00  0.00  0.93  0.00
  GQ64                    1.00   0.02  0.00  0.00  0.22  0.76  0.00  0.00  0.93  0.00
  GQ65                    1.00   0.02  0.00  0.00  0.98  0.00  0.00  0.00  0.93  0.00
  GQ66                    1.00   0.02  0.00  0.00  0.98  0.00  0.00  0.00  0.93  0.00
  GQ67                    1.00   0.02  0.00  0.00  0.98  0.00  0.00  0.00  0.01  0.00
  GQ68                    1.00   0.02  0.00  0.00  0.98  0.00  0.00  0.00  0.87  0.00
  GQ69                    1.00   0.02  0.00  0.00  0.51  0.47  0.00  0.00  0.93  0.00
  GQ70                    1.00   0.02  0.00  0.00  0.00  0.98  0.00  0.00  0.00  0.00
  GQ71                    1.00   0.02  0.00  0.00  0.00  0.98  0.00  0.00  0.25  0.00
  GQ72                    1.00   0.02  0.00  0.00  0.00  0.98  0.00  0.00  0.34  0.00
  GQ73                    1.00   0.02  0.00  0.00  0.00  0.98  0.00  0.00  0.00  0.00
  GQ74                    1.00   0.02  0.00  0.00  0.95  0.03  0.00  0.00  0.93  0.00
  GQ75                    1.00   0.02  0.00  0.00  0.98  0.00  0.00  0.00  0.93  0.00
  GQ76                    1.00   0.02  0.00  0.00  0.00  0.98  0.00  0.00  0.29  0.00
  GQ77                    1.00   0.02  0.98  0.00  0.00  0.00  0.00  0.00  0.00  0.00
  GQ78                    1.00   0.02  0.00  0.00  0.76  0.22  0.00  0.00  0.52  0.00
  GQ79                    1.00   0.02  0.00  0.00  0.98  0.00  0.00  0.00  0.02  0.00
  GQ80                    1.00   0.02  0.00  0.00  0.98  0.00  0.00  0.00  0.42  0.00
  GQ81                    1.00   0.02  0.00  0.00  0.98  0.00  0.00  0.00  0.00  0.00
  GQ82                    1.00   0.02  0.00  0.00  0.61  0.37  0.00  0.00  0.92  0.00
  GQ83                    1.00   0.02  0.00  0.00  0.00  0.98  0.00  0.00  0.92  0.00
  GQ84                    1.00   0.02  0.00  0.00  0.36  0.62  0.00  0.00  0.73  0.00
  GQ85                    1.00   0.02  0.00  0.00  0.98  0.00  0.00  0.00  0.43  0.00
  GQ86                    1.00   0.02  0.00  0.00  0.98  0.00  0.00  0.00  0.93  0.00
  GQ87                    1.00   0.02  0.00  0.00  0.98  0.00  0.00  0.00  0.93  0.00
  GQ88                    1.00   0.02  0.00  0.00  0.67  0.31  0.00  0.00  0.89  0.00
  GQ89                    1.00   0.02  0.00  0.00  0.98  0.01  0.00  0.00  0.85  0.00
  GQ90                    1.00   0.02  0.00  0.00  0.84  0.15  0.00  0.00  0.93  0.00
  GQ91                    1.00   0.02  0.00  0.00  0.98  0.01  0.00  0.00  0.80  0.00
  GQ92                    1.00   0.02  0.00  0.00  0.97  0.02  0.00  0.00  0.02  0.00
  GQ93                    1.00   0.02  0.00  0.00  0.98  0.00  0.00  0.00  0.71  0.00
  GQ94                    1.00   0.02  0.00  0.00  0.81  0.17  0.00  0.00  0.02  0.00
  GQ95                    1.00   0.02  0.00  0.00  0.98  0.00  0.00  0.00  0.93  0.00
  GQ96                    1.00   0.02  0.00  0.00  0.98  0.00  0.00  0.00  0.42  0.00
  GQ97                    1.00   0.02  0.00  0.00  0.11  0.87  0.00  0.00  0.56  0.00
  GQ98                    1.00   0.02  0.00  0.00  0.98  0.00  0.00  0.00  0.52  0.00
  GQ99                    1.00   0.02  0.00  0.00  0.98  0.01  0.00  0.00  0.93  0.00
  GQ100                   1.00   0.02  0.00  0.00  0.00  0.98  0.00  0.00  0.00  0.00
  GQ101                   1.00   0.02  0.00  0.00  0.84  0.14  0.00  0.00  0.93  0.00
  GQ102                   1.00   0.02  0.00  0.00  0.61  0.37  0.00  0.00  0.93  0.00
  GQ103                   1.00   0.02  0.00  0.00  0.98  0.00  0.00  0.00  0.72  0.00
  GQ104                   1.00   0.02  0.00  0.00  0.43  0.55  0.00  0.00  0.80  0.00
  GQ105                   1.00   0.02  0.00  0.00  0.98  0.00  0.00  0.00  0.02  0.00
  GQ106                   1.00   0.02  0.00  0.00  0.85  0.14  0.00  0.00  0.93  0.00
  GQ107                   1.00   0.02  0.00  0.00  0.60  0.38  0.00  0.00  0.70  0.00
  GQ108                   1.00   0.02  0.00  0.00  0.98  0.00  0.00  0.00  0.01  0.00
  GQ109                   1.00   0.02  0.00  0.00  0.96  0.02  0.00  0.00  0.81  0.00
  GQ110                   1.00   0.02  0.00  0.00  0.98  0.01  0.00  0.00  0.93  0.00
  GQ111                   1.00   0.02  0.00  0.00  0.84  0.14  0.00  0.00  0.75  0.00
  GQ112                   1.00   0.02  0.00  0.00  0.00  0.98  0.00  0.00  0.91  0.00
  GQ113                   1.00   0.02  0.00  0.00  0.00  0.98  0.00  0.00  0.92  0.00
  GQ114                   1.00   0.02  0.00  0.00  0.98  0.00  0.00  0.00  0.02  0.00
  GQ115                   1.00   0.02  0.00  0.00  0.97  0.01  0.00  0.00  0.93  0.00
  GQ116                   1.00   0.02  0.00  0.00  0.98  0.00  0.00  0.00  0.93  0.00
  GQ117                   1.00   0.02  0.00  0.00  0.00  0.98  0.00  0.00  0.00  0.00
  GQ118                   1.00   0.02  0.00  0.00  0.44  0.54  0.00  0.00  0.92  0.00
  GQ119                   1.00   0.02  0.00  0.00  0.72  0.27  0.00  0.00  0.50  0.00
  GQ120                   1.00   0.02  0.01  0.00  0.97  0.00  0.00  0.00  0.00  0.00
  GQ121                   1.00   0.02  0.00  0.00  0.98  0.01  0.00  0.00  0.01  0.00
  GQ122                   1.00   0.02  0.00  0.00  0.84  0.14  0.00  0.00  0.93  0.00
  GQ123                   1.00   0.02  0.00  0.00  0.66  0.32  0.00  0.00  0.93  0.00
  GQ124                   1.00   0.02  0.00  0.00  0.97  0.01  0.00  0.00  0.93  0.00
  GQ125                   1.00   0.02  0.00  0.00  0.98  0.01  0.00  0.00  0.75  0.00
  GQ126                   1.00   0.02  0.00  0.00  0.65  0.33  0.00  0.00  0.86  0.00
  GQ127                   1.00   0.02  0.00  0.00  0.98  0.00  0.00  0.00  0.48  0.00
  GQ128                   1.00   0.02  0.00  0.00  0.47  0.51  0.00  0.00  0.83  0.00
  GQ129                   1.00   0.02  0.00  0.00  0.98  0.00  0.00  0.00  0.41  0.00
  GQ130                   1.00   0.02  0.00  0.00  0.95  0.03  0.00  0.00  0.41  0.00
  GQ131                   1.00   0.02  0.00  0.00  0.84  0.14  0.00  0.00  0.62  0.00
  
  
  *************************
  Conduit Surcharge Summary
  *************************
  
  ----------------------------------------------------------------------------
                                                           Hours        Hours 
                         --------- Hours Full --------   Above Full   Capacity
  Conduit                Both Ends  Upstream  Dnstream   Normal Flow   Limited
  ----------------------------------------------------------------------------
  GQ1                         0.01      1.37      0.01      0.01         0.01
  GQ4                         7.14      7.14     12.70      0.01         0.01
  GQ5                         2.89      2.89     12.67      0.01         0.01
  GQ6                         0.01      0.01      2.89      0.01         0.01
  GQ7                         6.55      6.55      6.86      0.01         0.01
  GQ8                         0.96      0.96      6.55      0.01         0.01
  GQ9                         0.96      0.96     12.76      0.01         0.01
  GQ10                        7.23      7.23     12.78      0.07         0.01
  GQ12                        0.01      0.01      8.65      0.01         0.01
  GQ13                        0.01      0.01      6.87      0.01         0.01
  GQ15                        0.01      0.63      0.01      0.01         0.01
  GQ16                        0.01      1.98      0.01      0.01         0.01
  GQ18                        0.01      0.01      7.89      8.23         0.01
  GQ20                        0.01      0.01      2.58      0.01         0.01
  GQ21                        0.01      0.01      2.58      0.01         0.01
  GQ22                        0.01      0.01      1.00      0.01         0.01
  GQ23                        1.00      1.00      1.64      0.01         0.01
  GQ24                        2.10      2.10     12.72      0.01         0.01
  GQ25                        0.01      2.33      0.01      1.74         0.01
  GQ26                        0.01      0.01      2.44      0.01         0.01
  GQ27                        2.44      2.44     12.66      0.01         0.01
  GQ28                        0.01      0.01     12.68      0.01         0.01
  GQ29                       12.59     12.59     12.68      0.01         0.01
  GQ30                       12.66     12.66     12.70      0.01         0.01
  GQ31                        2.33      2.33     12.79      0.01         0.01
  GQ32                        1.19      3.44      1.19      2.25         0.39
  GQ33                        3.44      3.44     12.79      0.01         0.01
  GQ34                        0.01      0.01      3.44      0.01         0.01
  GQ35                        3.04      3.07      3.44      0.13         0.01
  GQ36                        3.06      3.08      3.10      2.65         2.31
  GQ37                        1.19      1.19     12.76      0.01         0.01
  GQ38                        0.01      0.01     12.76      0.01         0.01
  GQ39                        2.70      2.70      8.65      0.01         0.01
  GQ40                        1.19      1.19      2.70      0.01         0.01
  GQ41                        1.98      1.98     12.68      0.01         0.01
  GQ42                        6.58      6.58     12.69      0.01         0.01
  GQ43                        3.39      3.39      6.58      0.10         0.01
  GQ44                        6.98      6.98      7.89      0.01         0.01
  GQ45                        0.01      0.01      6.71      0.01         0.01
  GQ46                        6.71      6.71      6.98      0.01         0.01
  GQ47                        0.01      0.01     12.74      0.01         0.01
  GQ48                        0.01      0.01     12.74      0.01         0.01
  GQ49                        0.01      0.01     12.74      0.01         0.01
  GQ50                        0.01      0.01      2.63      0.01         0.01
  GQ51                        1.37      2.63      1.37      2.81         1.37
  GQ52                        1.74      1.74     12.59      1.00         1.00
  GQ53                        5.75      5.75     12.68      0.01         0.01
  GQ54                        0.01      0.01     12.75      0.01         0.01
  GQ55                        0.01      0.01     12.75      0.01         0.01
  GQ56                        4.56      4.62      6.55      1.12         0.33
  GQ57                        0.01      0.01      4.62      0.01         0.01
  GQ58                        0.01      0.01     12.66      0.01         0.01
  GQ59                        6.58      6.58     12.66      0.01         0.01
  GQ60                        2.86      2.86      6.62      0.01         0.01
  GQ61                        0.01      0.01     12.53      0.01         0.01
  GQ62                        0.01      0.01     12.55      0.01         0.01
  GQ63                        0.01      0.01     12.56      0.01         0.01
  GQ65                        0.01      0.01      0.80      0.01         0.01
  GQ66                        0.01      0.01     12.59      0.01         0.01
  GQ67                       12.54     12.54     12.55      0.01         0.01
  GQ68                        0.01      0.01     12.63      0.01         0.01
  GQ69                        0.01      0.01     12.72      0.51         0.01
  GQ75                        0.01      0.01     12.63      0.01         0.01
  GQ76                        0.01      0.01      0.70      0.70         0.01
  GQ78                        3.37      3.37     12.75      0.01         0.01
  GQ79                        0.01      0.01     12.75      0.01         0.01
  GQ80                        3.37      3.37      8.35      0.01         0.01
  GQ81                        8.27      8.35      8.65      7.96         0.96
  GQ82                        0.01      0.01      8.65      0.01         0.01
  GQ83                        0.01      0.01      2.31      0.01         0.01
  GQ84                        2.57      2.57      5.90      0.09         0.01
  GQ85                        2.57      2.57     12.82      0.01         0.01
  GQ86                        0.01      0.01     12.75      0.01         0.01
  GQ87                        0.01      0.01     12.75      0.01         0.01
  GQ88                        0.01      0.01     12.74      0.01         0.01
  GQ89                        0.32      0.32     12.66      0.01         0.01
  GQ90                        0.01      0.01     12.61      0.01         0.01
  GQ91                        0.36      0.36     12.68      0.01         0.01
  GQ92                        2.45      2.48      2.66      2.44         2.27
  GQ93                        2.66      2.66      3.27      0.01         0.01
  GQ94                        3.25      3.27      3.39      3.28         3.10
  GQ95                        0.01      0.01     12.79      0.01         0.01
  GQ96                        2.43      2.50      2.48      2.61         2.31
  GQ97                        0.01      0.74      0.01      0.88         0.01
  GQ98                        0.01      0.01     12.72      0.01         0.01
  GQ99                        0.01      0.01     12.57      0.01         0.01
  GQ100                       0.01      1.33      0.01      1.03         0.01
  GQ101                       0.01      0.01     12.69      0.01         0.01
  GQ102                       0.01      0.01     12.69      0.01         0.01
  GQ103                       1.44      1.44     12.71      0.01         0.01
  GQ104                       1.19      1.19     12.71      0.05         0.01
  GQ105                      12.67     12.67     12.69      8.98         0.01
  GQ106                       0.01      0.01     12.68      0.01         0.01
  GQ107                       2.70      2.70     12.68      0.01         0.01
  GQ108                       8.01      8.01     12.67      0.01         0.01
  GQ109                       0.01      0.01      2.70      0.01         0.01
  GQ110                       0.01      0.01     12.63      0.01         0.01
  GQ111                       0.01      0.01     12.69      0.01         0.01
  GQ114                       0.01      0.01     12.75      0.01         0.01
  GQ116                       0.01      0.01     12.76      0.01         0.01
  GQ117                       0.01      0.76      0.01      0.01         0.01
  GQ118                       0.01      0.01      0.76      0.01         0.01
  GQ119                       3.76      3.76     12.71      0.01         0.01
  GQ120                       0.01      0.01     12.70      0.01         0.01
  GQ121                      12.66     12.66     12.71      0.01         0.01
  GQ122                       0.01      0.01     12.66      0.01         0.01
  GQ123                       0.01      0.01     12.67      0.01         0.01
  GQ124                       0.01      0.01      0.76      0.01         0.01
  GQ125                       0.75      0.75     12.68      0.01         0.01
  GQ126                       0.01      0.01     12.69      0.01         0.01
  GQ127                       3.39      3.39      3.76      0.21         0.19
  GQ128                       0.01      0.01      3.11      0.01         0.01
  GQ129                       6.86      6.86     12.72      0.01         0.01
  GQ130                       7.00      7.00     12.83      0.01         0.01
  GQ131                       2.63      2.63     12.80      0.01         0.01
  

  Analysis begun on:  Sat Mar 25 16:21:37 2023
  Analysis ended on:  Sat Mar 25 16:21:41 2023
  Total elapsed time: 00:00:04