
  OWA STORM WATER MANAGEMENT MODEL - VERSION v5.1.14 (OWA 2022-07-31)
  --------------------------------------------------------------

  INP file created by DSDAConvertToSwmmTools 
  version 0.0.1 EcoVista 
  Title/Notes: 
  
  
  *********************************************************
  NOTE: The summary statistics displayed in this report are
  based on results found at every computational time step,  
  not just on results from each reporting time step.
  *********************************************************
  
  ****************
  Analysis Options
  ****************
  Flow Units ............... CMS
  Process Models:
    Rainfall/Runoff ........ YES
    RDII ................... NO
    Snowmelt ............... NO
    Groundwater ............ NO
    Flow Routing ........... YES
    Ponding Allowed ........ NO
    Water Quality .......... NO
  Infiltration Method ...... GREEN_AMPT
  Flow Routing Method ...... DYNWAVE
  Surcharge Method ......... EXTRAN
  Starting Date ............ 07/15/2020 00:00:00
  Ending Date .............. 07/15/2020 11:00:00
  Antecedent Dry Days ...... 0.0
  Report Time Step ......... 00:30:00
  Wet Time Step ............ 00:05:00
  Dry Time Step ............ 01:00:00
  Routing Time Step ........ 30.00 sec
  Variable Time Step ....... YES
  Maximum Trials ........... 8
  Number of Threads ........ 1
  Head Tolerance ........... 0.001500 m
  
  
  **************************        Volume         Depth
  Runoff Quantity Continuity     hectare-m            mm
  **************************     ---------       -------
  Total Precipitation ......       152.667        38.200
  Evaporation Loss .........         3.751         0.939
  Infiltration Loss ........        40.799        10.209
  Surface Runoff ...........       101.950        25.510
  Final Storage ............         6.319         1.581
  Continuity Error (%) .....        -0.100
  
  
  **************************        Volume        Volume
  Flow Routing Continuity        hectare-m      10^6 ltr
  **************************     ---------     ---------
  Dry Weather Inflow .......         0.000         0.000
  Wet Weather Inflow .......       101.918      1019.194
  Groundwater Inflow .......         0.000         0.000
  RDII Inflow ..............         0.000         0.000
  External Inflow ..........         0.000         0.000
  External Outflow .........         8.545        85.451
  Flooding Loss ............        92.129       921.300
  Evaporation Loss .........         0.000         0.000
  Exfiltration Loss ........         0.000         0.000
  Initial Stored Volume ....         0.000         0.000
  Final Stored Volume ......         1.104        11.038
  Continuity Error (%) .....         0.138
  
  
  *************************
  Highest Continuity Errors
  *************************
  Node jd51 (5.32%)
  Node jd64 (4.30%)
  Node jd59 (4.22%)
  Node jd31 (3.92%)
  Node jd41 (3.81%)
  
  
  ***************************
  Time-Step Critical Elements
  ***************************
  Link GQ73 (96.21%)
  
  
  ********************************
  Highest Flow Instability Indexes
  ********************************
  Link GQ67 (16)
  Link GQ114 (9)
  Link GQ121 (7)
  Link GQ29 (5)
  Link GQ94 (4)
  
  
  *************************
  Routing Time Step Summary
  *************************
  Minimum Time Step           :     2.01 sec
  Average Time Step           :     9.56 sec
  Maximum Time Step           :    30.00 sec
  Percent in Steady State     :     0.00
  Average Iterations per Step :     4.07
  Percent Not Converging      :    18.96
  
  
  ***************************
  Subcatchment Runoff Summary
  ***************************
  
  ------------------------------------------------------------------------------------------------------------------------------
                            Total      Total      Total      Total     Imperv       Perv      Total       Total     Peak  Runoff
                           Precip      Runon       Evap      Infil     Runoff     Runoff     Runoff      Runoff   Runoff   Coeff
  Subcatchment                 mm         mm         mm         mm         mm         mm         mm    10^6 ltr      CMS
  ------------------------------------------------------------------------------------------------------------------------------
  1                         38.20       0.00       0.56      21.40      15.42       0.00      15.42        6.10     0.88   0.404
  2                         38.20       0.00       1.01       8.13      27.33       0.00      27.33       24.71     3.61   0.715
  3                         38.20       0.00       1.05       6.97      28.45       0.00      28.45       11.38     1.66   0.745
  4                         38.20       0.00       1.08       5.99      29.40       0.00      29.40        2.47     0.36   0.770
  5                         38.20       0.00       0.95       9.73      26.00       0.00      26.00        3.22     0.47   0.681
  6                         38.20       0.00       0.91      10.95      24.92       0.00      24.92        2.32     0.34   0.652
  7                         38.20       0.00       0.95       9.77      25.88       0.00      25.88       11.29     1.65   0.678
  8                         38.20       0.00       1.21       2.14      32.83       0.00      32.83        4.57     0.67   0.859
  9                         38.20       0.00       1.25       1.07      33.80       0.00      33.80        3.96     0.58   0.885
  10                        38.20       0.00       1.07       6.21      29.15       0.00      29.15        6.57     0.96   0.763
  11                        38.20       0.00       1.16       3.65      31.44       0.00      31.44       15.59     2.28   0.823
  12                        38.20       0.00       0.91      10.98      24.82       0.00      24.82       12.11     1.76   0.650
  13                        38.20       0.00       1.14       4.12      31.02       0.00      31.02       14.03     2.05   0.812
  14                        38.20       0.00       1.14       4.17      31.02       0.00      31.02        5.85     0.85   0.812
  15                        38.20       0.00       1.06       6.72      28.68       0.00      28.68        9.70     1.41   0.751
  16                        38.20       0.00       1.09       5.55      29.73       0.00      29.73        8.78     1.28   0.778
  17                        38.20       0.00       1.03       7.62      27.86       0.00      27.86       11.66     1.70   0.729
  18                        38.20       0.00       1.18       3.01      32.02       0.00      32.02       13.22     1.93   0.838
  19                        38.20       0.00       1.18       3.14      31.89       0.00      31.89        7.17     1.05   0.835
  20                        38.20       0.00       1.17       3.35      31.64       0.00      31.64       16.98     2.48   0.828
  21                        38.20       0.00       1.24       1.12      33.71       0.00      33.71       10.58     1.55   0.882
  22                        38.20       0.00       1.22       1.80      33.08       0.00      33.08        4.07     0.59   0.866
  23                        38.20       0.00       1.12       4.67      30.50       0.00      30.50       17.46     2.55   0.798
  24                        38.20       0.00       1.09       5.83      29.44       0.00      29.44        5.22     0.76   0.771
  25                        38.20       0.00       1.16       3.58      31.53       0.00      31.53        6.38     0.93   0.825
  26                        38.20       0.00       0.99       8.71      26.82       0.00      26.82        9.41     1.37   0.702
  27                        38.20       0.00       1.19       2.86      32.09       0.00      32.09       13.56     1.98   0.840
  28                        38.20       0.00       1.21       2.11      32.80       0.00      32.80       15.51     2.27   0.859
  29                        38.20       0.00       1.08       5.93      29.43       0.00      29.43        6.87     1.00   0.770
  30                        38.20       0.00       1.24       1.29      33.65       0.00      33.65        2.41     0.35   0.881
  31                        38.20       0.00       1.25       0.80      34.01       0.00      34.01        7.50     1.10   0.890
  32                        38.20       0.00       1.22       1.70      33.19       0.00      33.19       14.34     2.10   0.869
  33                        38.20       0.00       1.24       1.24      33.60       0.00      33.60       11.84     1.73   0.880
  34                        38.20       0.00       1.15       3.87      31.25       0.00      31.25        9.16     1.34   0.818
  35                        38.20       0.00       1.18       2.88      32.13       0.00      32.13       13.33     1.95   0.841
  36                        38.20       0.00       0.98       9.10      26.57       0.00      26.57       10.45     1.52   0.695
  37                        38.20       0.00       1.21       2.06      32.87       0.00      32.87        7.29     1.07   0.860
  38                        38.20       0.00       1.14       4.32      30.85       0.00      30.85       11.77     1.72   0.808
  39                        38.20       0.00       1.03       7.60      27.90       0.00      27.90       11.78     1.72   0.730
  40                        38.20       0.00       1.14       4.13      31.02       0.00      31.02        7.09     1.03   0.812
  41                        38.20       0.00       1.17       3.36      31.73       0.00      31.73        6.26     0.91   0.831
  42                        38.20       0.00       1.17       3.40      31.62       0.00      31.62        7.81     1.14   0.828
  43                        38.20       0.00       0.98       8.93      26.68       0.00      26.68       21.09     3.07   0.698
  44                        38.20       0.00       1.05       6.96      28.42       0.00      28.42       13.74     2.00   0.744
  45                        38.20       0.00       0.98       8.86      26.75       0.00      26.75       19.36     2.82   0.700
  46                        38.20       0.00       0.95       9.87      25.89       0.00      25.89       12.94     1.88   0.678
  47                        38.20       0.00       1.00       8.45      27.12       0.00      27.12       31.62     4.61   0.710
  48                        38.20       0.00       1.19       2.64      32.27       0.00      32.27       18.73     2.74   0.845
  49                        38.20       0.00       1.09       5.66      29.56       0.00      29.56       20.01     2.92   0.774
  50                        38.20       0.00       1.21       2.15      32.67       0.00      32.67       12.84     1.88   0.855
  51                        38.20       0.00       1.16       3.71      31.28       0.00      31.28        5.85     0.86   0.819
  52                        38.20       0.00       0.56      21.43      15.40       0.00      15.40       15.81     2.29   0.403
  53                        38.20       0.00       0.81      13.91      22.25       0.00      22.25       23.70     3.44   0.583
  54                        38.20       0.00       1.01       8.23      27.32       0.00      27.32        6.66     0.97   0.715
  55                        38.20       0.00       0.58      21.04      15.75       0.00      15.75       12.43     1.80   0.412
  56                        38.20       0.00       0.22      31.73       6.01       0.00       6.01        4.90     0.70   0.157
  57                        38.20       0.00       1.14       4.25      30.84       0.00      30.84       25.62     3.74   0.807
  58                        38.20       0.00       1.05       6.75      28.65       0.00      28.65        4.72     0.69   0.750
  59                        38.20       0.00       1.03       7.50      28.02       0.00      28.02        3.57     0.52   0.734
  60                        38.20       0.00       0.39      26.69      10.61       0.00      10.61        3.04     0.44   0.278
  61                        38.20       0.00       0.60      20.31      16.35       0.00      16.35        6.16     0.90   0.428
  62                        38.20       0.00       0.84      13.29      22.73       0.00      22.73       26.64     3.88   0.595
  63                        38.20       0.00       1.14       4.21      30.84       0.00      30.84       59.64     8.72   0.807
  64                        38.20       0.00       0.85      12.84      23.23       0.00      23.23        4.99     0.72   0.608
  65                        38.20       0.00       1.16       3.73      31.28       0.00      31.28       21.04     3.08   0.819
  66                        38.20       0.00       0.91      11.05      24.73       0.00      24.73        6.30     0.92   0.647
  67                        38.20       0.00       0.85      12.82      23.28       0.00      23.28        7.53     1.09   0.609
  68                        38.20       0.00       1.02       7.76      27.75       0.00      27.75        3.08     0.45   0.727
  69                        38.20       0.00       0.60      20.33      16.47       0.00      16.47        5.27     0.76   0.431
  70                        38.20       0.00       0.84      13.06      22.94       0.00      22.94       18.88     2.75   0.601
  71                        38.20       0.00       1.04       7.14      28.31       0.00      28.31        3.47     0.51   0.741
  72                        38.20       0.00       1.10       5.45      29.84       0.00      29.84        3.72     0.54   0.781
  73                        38.20       0.00       0.99       8.53      27.09       0.00      27.09        4.50     0.65   0.709
  74                        38.20       0.00       0.95       9.92      25.83       0.00      25.83        5.56     0.81   0.676
  75                        38.20       0.00       1.05       6.77      28.65       0.00      28.65        4.13     0.60   0.750
  76                        38.20       0.00       1.11       5.13      30.15       0.00      30.15        2.92     0.43   0.789
  77                        38.20       0.00       1.18       2.94      32.09       0.00      32.09        3.47     0.51   0.840
  78                        38.20       0.00       1.14       4.18      30.97       0.00      30.97        3.40     0.50   0.811
  79                        38.20       0.00       0.50      23.28      13.74       0.00      13.74       14.57     2.10   0.360
  80                        38.20       0.00       0.94      10.08      25.60       0.00      25.60       16.03     2.34   0.670
  81                        38.20       0.00       0.96       9.64      26.02       0.00      26.02       11.34     1.65   0.681
  82                        38.20       0.00       0.92      10.85      24.93       0.00      24.93       22.86     3.33   0.653
  83                        38.20       0.00       1.15       4.01      31.15       0.00      31.15        3.81     0.56   0.816
  84                        38.20       0.00       1.08       5.93      29.39       0.00      29.39        3.51     0.51   0.769
  85                        38.20       0.00       1.27       0.29      34.50       0.00      34.50        3.21     0.47   0.903
  86                        38.20       0.00       1.17       3.22      31.84       0.00      31.84        4.69     0.68   0.833
  87                        38.20       0.00       1.25       0.82      33.97       0.00      33.97        4.47     0.65   0.889
  88                        38.20       0.00       1.12       4.76      30.47       0.00      30.47        2.92     0.43   0.798
  89                        38.20       0.00       1.18       3.07      31.99       0.00      31.99        6.16     0.90   0.837
  90                        38.20       0.00       1.28       0.01      34.77       0.00      34.77        0.40     0.06   0.910
  91                        38.20       0.00       1.07       6.40      28.90       0.00      28.90        6.30     0.92   0.756
  92                        38.20       0.00       1.18       2.97      32.07       0.00      32.07        4.01     0.59   0.839
  93                        38.20       0.00       0.96       9.49      26.19       0.00      26.19       13.40     1.95   0.686
  94                        38.20       0.00       0.87      12.37      23.69       0.00      23.69        1.66     0.24   0.620
  95                        38.20       0.00       1.28       0.04      34.71       0.00      34.71        0.76     0.11   0.909
  96                        38.20       0.00       1.03       7.40      28.09       0.00      28.09        3.43     0.50   0.735
  97                        38.20       0.00       1.25       0.81      34.02       0.00      34.02        3.38     0.49   0.891
  98                        38.20       0.00       1.04       7.22      28.26       0.00      28.26        3.48     0.51   0.740
  99                        38.20       0.00       0.51      22.86      14.16       0.00      14.16        5.25     0.76   0.371
  100                       38.20       0.00       0.57      21.14      15.72       0.00      15.72        4.03     0.58   0.412
  101                       38.20       0.00       0.59      20.72      16.10       0.00      16.10        7.89     1.14   0.422
  102                       38.20       0.00       0.96       9.71      25.99       0.00      25.99        6.34     0.92   0.680
  103                       38.20       0.00       0.32      28.68       8.81       0.00       8.81        3.20     0.46   0.231
  104                       38.20       0.00       0.22      31.76       5.95       0.00       5.95        5.77     0.83   0.156
  105                       38.20       0.00       1.05       6.78      28.65       0.00      28.65        3.75     0.55   0.750
  106                       38.20       0.00       0.57      21.18      15.65       0.00      15.65        3.82     0.55   0.410
  
  
  ******************
  Node Depth Summary
  ******************
  
  ---------------------------------------------------------------------------------
                                 Average  Maximum  Maximum  Time of Max    Reported
                                   Depth    Depth      HGL   Occurrence   Max Depth
  Node                 Type       Meters   Meters   Meters  days hr:min      Meters
  ---------------------------------------------------------------------------------
  jd1                  JUNCTION     0.12     0.24   273.24     0  05:00        0.24
  jd2                  JUNCTION     1.15     3.00   270.00     0  03:30        3.00
  jd3                  JUNCTION     2.67     3.00   266.00     0  02:41        3.00
  jd4                  JUNCTION     1.46     3.00   270.00     0  03:18        3.00
  jd5                  JUNCTION     0.09     0.17   274.17     0  05:00        0.17
  jd6                  JUNCTION     0.11     0.23   275.23     0  05:00        0.23
  jd7                  JUNCTION     0.32     0.59   264.69     0  05:00        0.59
  jd8                  JUNCTION     1.70     3.00   267.00     0  03:12        3.00
  jd9                  JUNCTION     1.48     3.00   268.00     0  03:14        3.00
  jd10                 JUNCTION     2.69     3.00   273.00     0  02:32        3.00
  jd11                 JUNCTION     0.10     0.20   282.20     0  05:00        0.20
  jd12                 JUNCTION     2.75     3.00   272.00     0  02:13        3.00
  jd13                 JUNCTION     0.12     0.26   289.26     0  05:00        0.26
  jd14                 JUNCTION     1.05     3.00   283.00     0  03:32        3.00
  jd15                 JUNCTION     0.30     0.64   278.64     0  05:00        0.64
  jd16                 JUNCTION     0.33     0.71   274.71     0  05:00        0.71
  jd17                 JUNCTION     1.82     3.00   278.80     0  03:13        3.00
  jd18                 JUNCTION     1.09     3.00   282.00     0  03:36        3.00
  jd19                 JUNCTION     1.37     3.00   270.00     0  03:15        3.00
  jd20                 JUNCTION     0.21     0.41   273.41     0  05:00        0.41
  jd21                 JUNCTION     2.67     3.00   273.00     0  03:09        3.00
  jd22                 JUNCTION     1.77     3.00   275.00     0  03:09        3.00
  jd23                 JUNCTION     0.68     3.00   281.00     0  04:13        3.00
  jd24                 JUNCTION     0.14     0.29   285.29     0  05:00        0.29
  jd25                 JUNCTION     0.54     3.00   282.00     0  04:21        2.43
  jd26                 JUNCTION     1.11     3.00   288.00     0  03:30        3.00
  jd27                 JUNCTION     0.44     3.00   294.00     0  04:19        1.96
  jd28                 JUNCTION     2.79     3.00   290.00     0  01:59        3.00
  jd29                 JUNCTION     0.10     0.20   299.20     0  05:00        0.20
  jd30                 JUNCTION     0.13     0.26   290.26     0  05:00        0.26
  jd31                 JUNCTION     1.17     3.00   275.00     0  03:13        2.14
  jd32                 JUNCTION     2.77     3.00   275.00     0  02:05        3.00
  jd33                 JUNCTION     0.20     0.43   289.43     0  05:00        0.43
  jd34                 JUNCTION     0.73     3.00   297.00     0  04:05        3.00
  jd35                 JUNCTION     2.82     3.00   292.00     0  01:47        3.00
  jd36                 JUNCTION     1.22     3.00   302.00     0  03:25        3.00
  jd37                 JUNCTION     1.21     3.00   306.00     0  03:24        3.00
  jd38                 JUNCTION     0.63     3.00   300.00     0  04:11        2.07
  jd39                 JUNCTION     2.69     3.00   297.00     0  02:39        3.00
  jd40                 JUNCTION     1.38     3.00   302.00     0  03:23        3.00
  jd41                 JUNCTION     2.57     3.00   296.00     0  03:18        3.00
  jd42                 JUNCTION     0.21     0.45   305.45     0  05:00        0.45
  jd43                 JUNCTION     1.33     3.00   300.00     0  03:17        3.00
  jd44                 JUNCTION     1.34     3.00   286.00     0  03:22        3.00
  jd45                 JUNCTION     2.75     3.00   282.00     0  02:16        3.00
  jd46                 JUNCTION     0.66     3.00   278.00     0  04:18        3.00
  jd47                 JUNCTION     0.16     0.32   315.32     0  05:00        0.32
  jd48                 JUNCTION     0.11     0.23   325.23     0  05:00        0.23
  jd49                 JUNCTION     0.33     3.00   292.00     0  04:54        2.28
  jd50                 JUNCTION     2.80     3.00   278.00     0  01:56        3.00
  jd51                 JUNCTION     2.55     3.00   313.00     0  03:19        3.00
  jd52                 JUNCTION     0.86     3.00   326.00     0  03:30        2.02
  jd53                 JUNCTION     1.22     3.00   325.00     0  03:28        3.00
  jd54                 JUNCTION     0.30     0.67   326.67     0  05:00        0.67
  jd55                 JUNCTION     1.77     3.00   325.00     0  03:17        3.00
  jd56                 JUNCTION     0.20     0.45   327.45     0  05:00        0.45
  jd59                 JUNCTION     2.53     3.00   320.80     0  03:21        3.00
  jd60                 JUNCTION     2.75     3.00   319.00     0  02:10        3.00
  jd61                 JUNCTION     0.15     0.31   329.31     0  05:00        0.31
  jd62                 JUNCTION     0.06     0.13   335.13     0  05:00        0.13
  jd63                 JUNCTION     0.07     0.14   324.14     0  05:00        0.14
  jd64                 JUNCTION     2.39     3.00   321.00     0  03:20        2.95
  jd65                 JUNCTION     1.67     3.00   307.00     0  03:11        3.00
  jd66                 JUNCTION     2.65     3.00   304.00     0  02:55        3.00
  jd69                 JUNCTION     0.24     0.53   333.53     0  05:00        0.53
  jd79                 JUNCTION     2.53     3.00   274.00     0  02:03        3.00
  jd80                 JUNCTION     1.84     3.00   279.00     0  03:10        3.00
  jd81                 JUNCTION     0.15     0.33   288.33     0  05:00        0.33
  jd83                 JUNCTION     2.83     3.00   323.00     0  01:44        3.00
  jd84                 JUNCTION     0.91     3.00   326.00     0  03:32        3.00
  jd85                 JUNCTION     2.65     3.00   324.00     0  02:52        3.00
  jd87                 JUNCTION     2.73     3.00   322.00     0  02:20        3.00
  jd89                 JUNCTION     0.17     0.37   324.37     0  05:00        0.37
  jd90                 JUNCTION     0.14     0.30   328.30     0  05:00        0.30
  jd92                 JUNCTION     0.15     0.36   326.36     0  05:00        0.36
  jd93                 JUNCTION     1.23     3.00   327.00     0  03:26        3.00
  jd94                 JUNCTION     0.78     3.00   329.20     0  03:36        2.29
  jd95                 JUNCTION     0.91     3.00   330.00     0  03:38        2.84
  jd96                 JUNCTION     2.74     3.00   308.00     0  02:20        3.00
  jd97                 JUNCTION     0.94     3.00   330.20     0  03:38        3.00
  jd98                 JUNCTION     0.20     0.45   329.45     0  05:00        0.45
  jd99                 JUNCTION     2.65     3.00   327.00     0  02:51        3.00
  jd101                JUNCTION     0.11     0.23   321.23     0  05:00        0.23
  jd102                JUNCTION     0.56     3.00   327.00     0  04:10        2.35
  jd103                JUNCTION     0.11     0.24   318.24     0  05:00        0.24
  jd106                JUNCTION     2.58     3.00   287.00     0  03:13        3.00
  jd107                JUNCTION     0.21     0.45   332.45     0  05:00        0.45
  jd108                JUNCTION     1.18     1.58   327.58     0  04:55        1.58
  jd109                JUNCTION     0.17     0.37   343.37     0  05:00        0.37
  jd110                JUNCTION     2.64     3.00   327.00     0  03:03        3.00
  jd111                JUNCTION     0.07     0.15   344.15     0  05:00        0.15
  jd112                JUNCTION     0.09     0.19   334.19     0  05:00        0.19
  jd113                JUNCTION     0.10     0.21   348.21     0  05:00        0.21
  jd114                JUNCTION     2.74     3.00   317.00     0  02:13        3.00
  jd117                JUNCTION     1.57     3.00   319.00     0  04:05        3.00
  jd118                JUNCTION     0.09     0.19   330.19     0  05:00        0.19
  jd120                JUNCTION     0.18     0.42   327.42     0  05:00        0.42
  jd121                JUNCTION     0.17     0.37   320.37     0  05:00        0.37
  jd122                JUNCTION     2.67     3.00   276.00     0  02:44        3.00
  jd123                JUNCTION     2.63     3.00   276.20     0  02:44        3.00
  jd124                JUNCTION     2.85     3.00   271.00     0  01:35        3.00
  jd125                JUNCTION     1.43     3.00   278.00     0  03:18        3.00
  jd126                JUNCTION     2.83     3.00   275.00     0  01:46        3.00
  jd135                JUNCTION     0.15     0.33   289.33     0  05:00        0.33
  jd136                JUNCTION     0.28     0.62   341.62     0  05:00        0.62
  psk1                 OUTFALL      0.09     0.19   279.19     0  05:00        0.19
  psk2                 OUTFALL      0.13     0.26   270.26     0  05:00        0.26
  psk3                 OUTFALL      0.32     0.71   271.71     0  05:00        0.71
  psk4                 OUTFALL      0.00     0.00   280.00     0  00:00        0.00
  psk5                 OUTFALL      0.12     0.24   263.24     0  05:00        0.24
  psk6                 OUTFALL      0.09     0.17   259.17     0  05:00        0.17
  psk7                 OUTFALL      0.32     0.59   262.59     0  05:00        0.59
  psk8                 OUTFALL      0.00     0.00   317.00     0  00:00        0.00
  
  
  *******************
  Node Inflow Summary
  *******************
  
  -------------------------------------------------------------------------------------------------
                                  Maximum  Maximum                  Lateral       Total        Flow
                                  Lateral    Total  Time of Max      Inflow      Inflow     Balance
                                   Inflow   Inflow   Occurrence      Volume      Volume       Error
  Node                 Type           CMS      CMS  days hr:min    10^6 ltr    10^6 ltr     Percent
  -------------------------------------------------------------------------------------------------
  jd1                  JUNCTION     0.883    1.221     0  05:00         6.1        9.13      -0.011
  jd2                  JUNCTION     1.374    1.802     0  05:00        9.41        12.6       0.022
  jd3                  JUNCTION     1.646    3.364     0  05:00        11.3        28.2       1.442
  jd4                  JUNCTION     1.983    2.200     0  05:00        13.6        15.1       0.029
  jd5                  JUNCTION     0.577    0.931     0  05:00        3.95        6.59      -0.015
  jd6                  JUNCTION     0.667    0.667     0  05:00        4.57        4.57      -0.008
  jd7                  JUNCTION     0.336    2.738     0  05:00        2.31          24       0.051
  jd8                  JUNCTION     0.468    1.414     0  05:00        3.21        14.6       0.431
  jd9                  JUNCTION     0.359    1.427     0  05:00        2.47        14.4       0.011
  jd10                 JUNCTION     0.957    1.210     0  05:00        6.56        8.32       1.233
  jd11                 JUNCTION     1.414    1.414     0  05:00        9.69        9.69      -0.047
  jd12                 JUNCTION     1.065    2.352     0  05:00        7.29          16       0.872
  jd13                 JUNCTION     1.930    1.930     0  05:00        13.2        13.2      -0.009
  jd14                 JUNCTION     2.266    2.564     0  05:00        15.5        17.5       0.023
  jd15                 JUNCTION     0.931    1.899     0  05:00        6.38          14       0.126
  jd16                 JUNCTION     1.001    3.948     0  05:00        6.87        27.3       0.034
  jd17                 JUNCTION     2.095    4.225     0  05:00        14.3        32.9       0.436
  jd18                 JUNCTION     1.660    2.429     0  05:00        11.4        16.6       0.061
  jd19                 JUNCTION     1.541    2.744     0  05:00        10.6        20.2       0.035
  jd20                 JUNCTION     1.281    1.533     0  05:00        8.78        12.7       0.053
  jd21                 JUNCTION     0.595    3.363     0  05:00        4.07        26.6       1.274
  jd22                 JUNCTION     1.047    2.044     0  05:00        7.17        14.8       0.548
  jd23                 JUNCTION     1.035    3.072     0  05:00        7.09        20.7      -0.050
  jd24                 JUNCTION     1.700    1.700     0  05:00        11.7        11.7      -0.031
  jd25                 JUNCTION     1.337    1.950     0  05:00        9.16        13.3       0.020
  jd26                 JUNCTION     1.946    3.048     0  05:00        13.3        21.4       0.007
  jd27                 JUNCTION     2.005    2.667     0  05:00        13.7        20.2       0.030
  jd28                 JUNCTION     2.739    3.541     0  05:00        18.7        24.8       0.539
  jd29                 JUNCTION     1.095    1.095     0  05:00        7.49        7.49      -0.044
  jd30                 JUNCTION     1.141    3.036     0  05:00        7.81        22.4       0.014
  jd31                 JUNCTION     0.762    1.614     0  05:00        5.22        11.4       4.082
  jd32                 JUNCTION     1.545    4.878     0  05:00        10.6        37.5       0.663
  jd33                 JUNCTION     1.521    2.571     0  05:00        10.5        17.8       0.011
  jd34                 JUNCTION     1.881    1.881     0  05:00        12.9        12.9      -0.008
  jd35                 JUNCTION     1.717    3.898     0  05:00        11.8        31.7       0.419
  jd36                 JUNCTION     2.924    3.959     0  05:00          20        29.2       0.012
  jd37                 JUNCTION     3.072    3.072     0  05:00        21.1        21.1       0.048
  jd38                 JUNCTION     2.820    3.687     0  05:00        19.4        28.1       0.029
  jd39                 JUNCTION     1.952    5.104     0  05:00        13.4        41.7       1.238
  jd40                 JUNCTION     3.330    5.520     0  05:00        22.9          44       0.012
  jd41                 JUNCTION     2.338    7.397     0  05:00          16        55.3       3.966
  jd42                 JUNCTION     3.076    3.370     0  05:00          21        23.1       0.060
  jd43                 JUNCTION     3.437    5.631     0  05:00        23.7        40.3       0.086
  jd44                 JUNCTION     4.607    7.418     0  05:00        31.6        58.1      -0.015
  jd45                 JUNCTION     1.878    4.103     0  05:00        12.8        35.4       0.920
  jd46                 JUNCTION     0.856    0.856     0  05:00        5.85        5.85       0.037
  jd47                 JUNCTION     2.748    2.748     0  05:00        18.9        18.9      -0.123
  jd48                 JUNCTION     0.760    0.760     0  05:00        5.27        5.27      -0.078
  jd49                 JUNCTION     3.743    3.743     0  05:00        25.6        25.6       0.012
  jd50                 JUNCTION     3.876    7.786     0  04:47        26.6        62.4       0.694
  jd51                 JUNCTION     0.809    3.722     0  05:00        5.56        25.6       5.619
  jd52                 JUNCTION     1.653    4.312     0  03:30        11.3        26.7       0.085
  jd53                 JUNCTION     0.920    3.475     0  05:00         6.3        26.5       0.007
  jd54                 JUNCTION     0.493    2.452     0  05:00        3.38        16.9       0.034
  jd55                 JUNCTION     0.899    3.759     0  05:00        6.16        23.5       3.013
  jd56                 JUNCTION     0.546    1.598     0  05:00        3.75          11       0.001
  jd59                 JUNCTION     0.542    2.690     0  05:00        3.72        18.1       4.406
  jd60                 JUNCTION     0.971    2.059     0  05:00        6.66        14.2       0.916
  jd61                 JUNCTION     1.090    1.225     0  05:00        7.52        8.46      -0.001
  jd62                 JUNCTION     0.438    0.438     0  05:00        3.04        3.04      -0.035
  jd63                 JUNCTION     0.602    0.602     0  05:00        4.13        4.13      -0.031
  jd64                 JUNCTION     0.507    1.251     0  05:00        3.47        8.59       4.490
  jd65                 JUNCTION     8.716    8.716     0  05:00        59.6        59.6       0.011
  jd66                 JUNCTION     1.138    3.298     0  05:00        7.89        22.9       1.414
  jd69                 JUNCTION     2.102    2.161     0  05:00        14.6          15      -0.012
  jd79                 JUNCTION     2.048    2.964     0  05:00          14        22.4       0.795
  jd80                 JUNCTION     2.275    2.883     0  05:00        15.6        20.5       0.069
  jd81                 JUNCTION     1.730    1.730     0  05:00        11.8        11.8      -0.006
  jd83                 JUNCTION     1.799    2.378     0  05:00        12.4        16.4       0.529
  jd84                 JUNCTION     2.287    2.287     0  05:00        15.8        15.8      -0.009
  jd85                 JUNCTION     0.519    0.850     0  05:00        3.57        5.86       1.497
  jd87                 JUNCTION     0.426    1.027     0  05:00        2.92        7.07       1.061
  jd89                 JUNCTION     0.497    0.497     0  05:00         3.4         3.4      -0.015
  jd90                 JUNCTION     0.506    0.506     0  05:00        3.47        3.47      -0.032
  jd92                 JUNCTION     0.425    0.425     0  05:00        2.92        2.92      -0.019
  jd93                 JUNCTION     0.919    1.877     0  05:00         6.3        13.3       0.033
  jd94                 JUNCTION     0.058    0.959     0  05:00       0.399        7.01      -0.018
  jd95                 JUNCTION     0.111    0.902     0  05:01       0.757        6.62       0.085
  jd96                 JUNCTION     0.829    1.106     0  05:00        5.77        7.66       1.285
  jd97                 JUNCTION     0.896    0.896     0  05:00        6.16        6.16       0.002
  jd98                 JUNCTION     0.500    0.500     0  05:00        3.43        3.43       0.004
  jd99                 JUNCTION     0.240    0.535     0  05:00        1.66         4.2       1.371
  jd101                JUNCTION     0.655    1.308     0  05:00         4.5        8.96      -0.090
  jd102                JUNCTION     0.653    0.653     0  05:00        4.47        4.47       0.023
  jd103                JUNCTION     0.450    0.450     0  05:00        3.08        3.08      -0.013
  jd106                JUNCTION     0.352    2.021     0  05:00        2.41        14.1       2.777
  jd107                JUNCTION     0.507    1.669     0  05:00        3.48        11.5       0.031
  jd108                JUNCTION     0.552    0.552     0  05:00        3.82        3.84       1.707
  jd109                JUNCTION     0.923    0.923     0  05:00        6.33        6.33      -0.003
  jd110                JUNCTION     0.701    1.043     0  05:00         4.9        7.27       2.136
  jd111                JUNCTION     0.582    0.582     0  05:00        4.03        4.03      -0.058
  jd112                JUNCTION     0.684    1.901     0  05:00        4.69        13.1       0.004
  jd113                JUNCTION     0.460    0.460     0  05:00         3.2         3.2      -0.038
  jd114                JUNCTION     0.555    4.271     0  05:00        3.81        36.8       0.863
  jd117                JUNCTION     0.512    1.671     0  05:00        3.51        11.6       1.377
  jd118                JUNCTION     0.468    0.468     0  05:00        3.21        3.21      -0.010
  jd120                JUNCTION     0.585    0.585     0  05:00        4.01        4.01      -0.014
  jd121                JUNCTION     0.723    0.723     0  05:00        4.99        4.99      -0.007
  jd122                JUNCTION     1.716    5.851     0  05:00        11.8        46.6       1.212
  jd123                JUNCTION     1.764    4.190     0  05:00        12.1        38.3       1.875
  jd124                JUNCTION     2.549    3.622     0  05:00        17.5        30.9       0.183
  jd125                JUNCTION     2.482    4.157     0  05:00          17        36.1      -0.001
  jd126                JUNCTION     3.608    4.470     0  05:00        24.7        32.3       0.315
  jd135                JUNCTION     0.913    0.913     0  05:00        6.26        6.26      -0.014
  jd136                JUNCTION     0.757    1.217     0  05:00        5.25        8.45       0.025
  psk1                 OUTFALL      0.000    0.921     0  05:00           0        6.32       0.000
  psk2                 OUTFALL      0.000    2.314     0  05:00           0        16.9       0.000
  psk3                 OUTFALL      0.000    3.947     0  05:00           0        27.3       0.000
  psk4                 OUTFALL      0.000    0.000     0  00:00           0           0       0.000 ltr
  psk5                 OUTFALL      0.000    0.793     0  05:00           0        5.93       0.000
  psk6                 OUTFALL      0.000    0.714     0  05:00           0        5.05       0.000
  psk7                 OUTFALL      0.000    2.738     0  05:00           0          24       0.000
  psk8                 OUTFALL      0.000    0.000     0  00:00           0           0       0.000 ltr
  
  
  **********************
  Node Surcharge Summary
  **********************
  
  Surcharging occurs when water rises above the top of the highest conduit.
  ---------------------------------------------------------------------
                                               Max. Height   Min. Depth
                                   Hours       Above Crown    Below Rim
  Node                 Type      Surcharged         Meters       Meters
  ---------------------------------------------------------------------
  jd2                  JUNCTION        1.72          2.200        0.000
  jd3                  JUNCTION        8.32          2.200        0.000
  jd4                  JUNCTION        2.50          2.200        0.000
  jd8                  JUNCTION        3.63          2.200        0.000
  jd9                  JUNCTION        2.60          2.200        0.000
  jd10                 JUNCTION        8.47          2.400        0.000
  jd12                 JUNCTION        8.80          2.400        0.000
  jd14                 JUNCTION        1.60          2.400        0.000
  jd17                 JUNCTION        3.94          2.200        0.000
  jd18                 JUNCTION        1.56          2.000        0.000
  jd19                 JUNCTION        2.14          2.200        0.000
  jd21                 JUNCTION        8.47          2.200        0.000
  jd22                 JUNCTION        7.85          2.400        0.000
  jd23                 JUNCTION        0.90          2.000        0.000
  jd25                 JUNCTION        0.69          2.000        0.000
  jd26                 JUNCTION        1.66          2.400        0.000
  jd27                 JUNCTION        0.73          2.400        0.000
  jd28                 JUNCTION        9.01          2.400        0.000
  jd31                 JUNCTION        7.78          2.200        0.000
  jd32                 JUNCTION        8.91          2.200        0.000
  jd34                 JUNCTION        0.97          2.400        0.000
  jd35                 JUNCTION        9.21          2.400        0.000
  jd36                 JUNCTION        1.87          2.400        0.000
  jd37                 JUNCTION        1.83          2.400        0.000
  jd38                 JUNCTION        0.89          2.000        0.000
  jd39                 JUNCTION        8.36          2.000        0.000
  jd40                 JUNCTION        2.14          2.200        0.000
  jd41                 JUNCTION        7.69          1.000        0.000
  jd43                 JUNCTION        2.02          2.200        0.000
  jd44                 JUNCTION        2.05          2.000        0.000
  jd45                 JUNCTION        8.74          2.000        0.000
  jd46                 JUNCTION        0.78          2.200        0.000
  jd49                 JUNCTION        0.13          2.200        0.000
  jd50                 JUNCTION        9.06          2.200        0.000
  jd51                 JUNCTION        7.68          1.350        0.000
  jd52                 JUNCTION        1.72          1.500        0.000
  jd53                 JUNCTION        1.82          1.800        0.000
  jd55                 JUNCTION        2.22          1.500        0.000
  jd59                 JUNCTION        7.65          1.500        0.000
  jd60                 JUNCTION        8.83          2.400        0.000
  jd64                 JUNCTION        7.66          1.800        0.000
  jd65                 JUNCTION        2.95          2.400        0.000
  jd66                 JUNCTION        8.09          2.200        0.000
  jd79                 JUNCTION        8.95          2.400        0.000
  jd80                 JUNCTION        4.18          2.400        0.000
  jd83                 JUNCTION        9.26          2.400        0.000
  jd84                 JUNCTION        1.53          2.400        0.000
  jd85                 JUNCTION        8.23          2.400        0.000
  jd87                 JUNCTION        8.67          2.400        0.000
  jd93                 JUNCTION        1.92          2.200        0.000
  jd94                 JUNCTION        1.60          2.200        0.000
  jd95                 JUNCTION        1.49          2.200        0.000
  jd96                 JUNCTION        8.69          2.200        0.000
  jd97                 JUNCTION        1.46          2.200        0.000
  jd99                 JUNCTION        8.17          2.400        0.000
  jd102                JUNCTION        0.88          2.400        0.000
  jd106                JUNCTION        7.78          2.000        0.000
  jd108                JUNCTION        8.71          0.576        1.424
  jd110                JUNCTION        7.96          2.000        0.000
  jd114                JUNCTION        8.78          2.000        0.000
  jd117                JUNCTION        8.34          2.200        0.000
  jd122                JUNCTION        8.47          2.200        0.000
  jd123                JUNCTION        8.27          2.200        0.000
  jd124                JUNCTION        9.41          2.400        0.000
  jd125                JUNCTION        2.39          2.200        0.000
  jd126                JUNCTION        9.24          2.400        0.000
  
  
  *********************
  Node Flooding Summary
  *********************
  
  Flooding refers to all water that overflows a node, whether it ponds or not.
  --------------------------------------------------------------------------
                                                             Total   Maximum
                                 Maximum   Time of Max       Flood    Ponded
                        Hours       Rate    Occurrence      Volume     Depth
  Node                 Flooded       CMS   days hr:min    10^6 ltr    Meters
  --------------------------------------------------------------------------
  jd2                     1.51     0.593      0  05:00       2.058     0.000
  jd3                     8.31     3.364      0  05:00      27.751     0.000
  jd4                     2.15     1.690      0  05:00       8.774     0.000
  jd8                     2.06     0.452      0  03:12       1.719     0.000
  jd9                     2.03     0.722      0  03:14       2.959     0.000
  jd10                    8.45     1.210      0  05:00       8.218     0.000
  jd12                    8.79     2.352      0  05:00      15.857     0.000
  jd14                    1.17     0.733      0  05:00       2.293     0.000
  jd17                    2.51     3.396      0  05:00      20.055     0.000
  jd18                    1.48     0.905      0  05:00       3.382     0.000
  jd19                    1.95     1.676      0  05:00       8.256     0.000
  jd21                    7.80     3.363      0  05:00      25.947     0.000
  jd22                    2.02     1.220      0  05:00       6.153     0.000
  jd23                    0.63     0.451      0  04:13       0.101     0.000
  jd25                    0.01     0.335      0  04:21       0.003     0.000
  jd26                    1.61     1.153      0  05:00       4.426     0.000
  jd27                    0.01     0.220      0  04:19       0.001     0.000
  jd28                    9.01     3.541      0  05:00      24.700     0.000
  jd31                    0.01     0.950      0  03:13       0.010     0.000
  jd32                    8.91     4.878      0  05:00      37.299     0.000
  jd34                    0.79     0.160      0  04:05       0.202     0.000
  jd35                    9.21     3.898      0  05:00      31.599     0.000
  jd36                    1.78     1.863      0  05:00       8.164     0.000
  jd37                    1.76     1.664      0  05:00       6.999     0.000
  jd38                    0.01     0.407      0  04:11       0.004     0.000
  jd39                    8.34     5.104      0  05:00      41.180     0.000
  jd40                    2.07     2.959      0  05:00      16.055     0.000
  jd41                    7.69     7.397      0  05:00      53.200     0.000
  jd43                    1.98     3.799      0  05:00      20.328     0.000
  jd44                    1.88     3.518      0  05:00      16.522     0.000
  jd45                    8.74     4.103      0  05:00      35.029     0.000
  jd46                    0.23     0.157      0  04:18       0.005     0.000
  jd49                    0.01     0.237      0  04:54       0.003     0.000
  jd50                    9.06     7.786      0  04:47      61.951     0.000
  jd51                    7.68     3.722      0  05:00      24.235     0.000
  jd52                    0.01     1.939      0  03:30       0.038     0.000
  jd53                    1.61     1.173      0  05:00       4.191     0.000
  jd55                    1.70     3.759      0  05:00      18.128     0.000
  jd59                    7.65     2.690      0  05:00      17.305     0.000
  jd60                    8.82     2.059      0  05:00      14.068     0.000
  jd64                    0.01     0.332      0  03:20       0.004     0.000
  jd65                    2.89     7.623      0  05:00      42.886     0.000
  jd66                    8.08     3.298      0  05:00      22.541     0.000
  jd79                    3.56     2.712      0  05:00      18.266     0.000
  jd80                    2.99     2.725      0  05:00      16.991     0.000
  jd83                    9.26     2.378      0  05:00      16.355     0.000
  jd84                    1.00     0.447      0  05:00       1.405     0.000
  jd85                    8.14     0.850      0  05:00       5.774     0.000
  jd87                    8.66     1.027      0  05:00       7.001     0.000
  jd93                    1.48     0.690      0  05:00       2.708     0.000
  jd94                    0.01     0.216      0  03:36       0.001     0.000
  jd95                    0.01     0.043      0  03:38       0.000     0.000
  jd96                    8.67     1.106      0  05:00       7.570     0.000
  jd97                    0.91     0.116      0  03:38       0.296     0.000
  jd99                    8.15     0.535      0  05:00       4.148     0.000
  jd102                   0.01     0.051      0  04:10       0.000     0.000
  jd106                   7.78     2.021      0  05:00      13.697     0.000
  jd110                   7.95     1.043      0  05:00       7.124     0.000
  jd114                   8.34     4.271      0  05:00      36.390     0.000
  jd117                   0.96     0.257      0  05:00       0.756     0.000
  jd122                   8.27     5.851      0  05:00      46.020     0.000
  jd123                   4.61     3.875      0  05:00      30.451     0.000
  jd124                   9.41     3.622      0  05:00      30.807     0.000
  jd125                   2.00     1.771      0  05:00       8.763     0.000
  jd126                   9.24     4.470      0  05:00      32.214     0.000
  
  
  ***********************
  Outfall Loading Summary
  ***********************
  
  -----------------------------------------------------------
                         Flow       Avg       Max       Total
                         Freq      Flow      Flow      Volume
  Outfall Node           Pcnt       CMS       CMS    10^6 ltr
  -----------------------------------------------------------
  psk1                  97.01     0.346     0.921       6.324
  psk2                  96.96     0.920     2.314      16.853
  psk3                  97.05     1.494     3.947      27.281
  psk4                   0.00     0.000     0.000       0.000
  psk5                  97.03     0.319     0.793       5.928
  psk6                  96.96     0.275     0.714       5.052
  psk7                  97.05     1.221     2.738      24.013
  psk8                   0.00     0.000     0.000       0.000
  -----------------------------------------------------------
  System                72.76     4.574     0.000      85.451
  
  
  ********************
  Link Flow Summary
  ********************
  
  -----------------------------------------------------------------------------
                                 Maximum  Time of Max   Maximum    Max/    Max/
                                  |Flow|   Occurrence   |Veloc|    Full    Full
  Link                 Type          CMS  days hr:min     m/sec    Flow   Depth
  -----------------------------------------------------------------------------
  GQ1                  CONDUIT     0.355     0  03:56      1.98    0.93    0.70
  GQ2                  CONDUIT     1.561     0  05:00      2.79    0.74    0.68
  GQ3                  CONDUIT     0.921     0  05:00      6.98    0.03    0.13
  GQ4                  CONDUIT     0.510     0  04:15      1.80    1.00    1.00
  GQ5                  CONDUIT     1.208     0  04:12      2.40    1.00    1.00
  GQ6                  CONDUIT     0.428     0  05:00      1.26    0.19    0.65
  GQ7                  CONDUIT     1.698     0  03:18      3.65    1.01    1.00
  GQ8                  CONDUIT     0.980     0  05:00      1.95    0.94    1.00
  GQ9                  CONDUIT     2.823     0  04:46      5.74    0.99    1.00
  GQ10                 CONDUIT     1.134     0  06:10      4.10    1.04    1.00
  GQ11                 CONDUIT     0.295     0  05:00      2.16    0.32    0.57
  GQ12                 CONDUIT     0.359     0  05:00      1.65    0.39    0.72
  GQ13                 CONDUIT     0.217     0  05:00      0.68    0.10    0.61
  GQ14                 CONDUIT     0.116     0  05:00      1.19    0.16    0.25
  GQ15                 CONDUIT     0.238     0  05:00      4.41    0.96    0.72
  GQ16                 CONDUIT     1.894     0  05:00      4.12    0.91    0.63
  GQ17                 CONDUIT     0.551     0  05:00      2.14    0.17    0.51
  GQ18                 CONDUIT     1.104     0  05:00      2.50    4.97    0.87
  GQ19                 CONDUIT     0.746     0  05:00      2.59    0.09    0.39
  GQ20                 CONDUIT     0.164     0  05:00      0.51    0.09    0.60
  GQ21                 CONDUIT     0.605     0  05:00      1.55    0.19    0.65
  GQ22                 CONDUIT     0.613     0  05:00      1.82    0.19    0.65
  GQ23                 CONDUIT     1.461     0  05:07      2.28    0.72    1.00
  GQ24                 CONDUIT     2.020     0  04:58      4.02    1.00    1.00
  GQ25                 CONDUIT     1.050     0  05:00      4.09    1.18    0.86
  GQ26                 CONDUIT     0.722     0  04:21      2.81    0.85    0.86
  GQ27                 CONDUIT     0.997     0  04:40      3.52    1.00    1.00
  GQ28                 CONDUIT     0.330     0  05:00      0.81    0.35    0.75
  GQ29                 CONDUIT     1.614     0  05:00      3.21    0.75    1.00
  GQ30                 CONDUIT     0.824     0  03:29      2.91    1.00    1.00
  GQ31                 CONDUIT     0.747     0  04:38      2.64    1.00    1.00
  GQ32                 CONDUIT     0.739     0  04:18      2.97    1.19    1.00
  GQ33                 CONDUIT     1.434     0  04:22      5.07    1.00    1.00
  GQ34                 CONDUIT     0.495     0  05:00      1.89    0.78    0.88
  GQ35                 CONDUIT     0.709     0  03:25      2.51    1.31    1.00
  GQ36                 CONDUIT     0.953     0  03:25      3.37    1.18    1.00
  GQ37                 CONDUIT     0.601     0  05:00      2.12    0.86    1.00
  GQ38                 CONDUIT     0.201     0  05:00      0.93    0.29    0.72
  GQ39                 CONDUIT     0.782     0  03:50      2.76    1.00    1.00
  GQ40                 CONDUIT     0.731     0  05:00      2.58    0.91    1.00
  GQ41                 CONDUIT     1.793     0  05:00      2.28    0.83    1.00
  GQ42                 CONDUIT     1.359     0  04:18      2.70    1.00    1.00
  GQ43                 CONDUIT     2.308     0  03:25      4.70    1.03    1.00
  GQ44                 CONDUIT     0.946     0  04:09      1.88    1.00    1.00
  GQ45                 CONDUIT     1.202     0  05:00      2.96    0.49    0.75
  GQ46                 CONDUIT     1.068     0  03:49      2.27    1.00    1.00
  GQ47                 CONDUIT     0.253     0  05:00      1.26    0.24    0.67
  GQ48                 CONDUIT     0.251     0  05:00      1.25    0.24    0.67
  GQ49                 CONDUIT     1.036     0  05:00      4.77    0.39    0.72
  GQ50                 CONDUIT     0.298     0  05:00      1.37    0.39    0.72
  GQ51                 CONDUIT     0.995     0  04:05      3.53    1.52    1.00
  GQ52                 CONDUIT     0.852     0  05:00      1.70    1.14    1.00
  GQ53                 CONDUIT     2.225     0  03:52      2.83    1.00    1.00
  GQ54                 CONDUIT     0.623     0  05:00      2.70    0.53    0.76
  GQ55                 CONDUIT     0.465     0  05:00      2.23    0.32    0.69
  GQ56                 CONDUIT     2.003     0  03:20      4.31    1.09    1.00
  GQ57                 CONDUIT     0.932     0  05:00      2.21    0.61    0.78
  GQ58                 CONDUIT     1.942     0  05:00      4.61    0.61    0.78
  GQ59                 CONDUIT     1.203     0  03:58      2.39    1.00    1.00
  GQ60                 CONDUIT     2.153     0  03:30      1.43    0.52    1.00
  GQ61                 CONDUIT     0.400     0  05:00      0.38    0.05    0.58
  GQ62                 CONDUIT     0.833     0  05:00      0.62    0.08    0.60
  GQ63                 CONDUIT     1.915     0  05:00      1.01    0.06    0.58
  GQ64                 CONDUIT     0.135     0  05:00      1.51    0.11    0.37
  GQ65                 CONDUIT     0.058     0  05:00      0.38    0.11    0.55
  GQ66                 CONDUIT     0.238     0  05:00      0.77    0.07    0.59
  GQ67                 CONDUIT     1.251     0  05:00      1.11    0.87    1.00
  GQ68                 CONDUIT     1.303     0  05:00      2.14    0.41    0.72
  GQ69                 CONDUIT     2.161     0  05:00      4.85    0.77    0.83
  GQ70                 CONDUIT     0.714     0  05:00      8.91    0.10    0.22
  GQ71                 CONDUIT     0.793     0  05:00      6.31    0.19    0.30
  GQ72                 CONDUIT     2.738     0  05:00      5.68    0.65    0.59
  GQ73                 CONDUIT     2.314     0  05:00     14.08    0.15    0.26
  GQ74                 CONDUIT     0.488     0  05:00      1.50    0.09    0.46
  GQ75                 CONDUIT     0.521     0  05:00      1.00    0.15    0.63
  GQ76                 CONDUIT     3.947     0  05:00      6.61    0.85    0.71
  GQ77                 CONDUIT     0.000     0  00:00      0.00    0.00    0.32
  GQ78                 CONDUIT     0.916     0  03:47      3.24    1.00    1.00
  GQ79                 CONDUIT     0.251     0  05:00      1.08    0.54    0.84
  GQ80                 CONDUIT     0.608     0  04:19      2.15    1.00    1.00
  GQ81                 CONDUIT     0.601     0  03:11      2.14    3.81    1.00
  GQ82                 CONDUIT     0.832     0  05:00      3.55    0.57    0.77
  GQ83                 CONDUIT     0.898     0  05:00      3.83    0.57    0.77
  GQ84                 CONDUIT     1.304     0  03:30      4.72    1.03    1.00
  GQ85                 CONDUIT     0.579     0  04:16      2.05    1.00    1.00
  GQ86                 CONDUIT     0.244     0  05:00      1.35    0.11    0.61
  GQ87                 CONDUIT     0.087     0  05:00      0.47    0.13    0.62
  GQ88                 CONDUIT     0.602     0  05:00      2.61    0.53    0.76
  GQ89                 CONDUIT     0.497     0  05:00      2.02    0.65    0.81
  GQ90                 CONDUIT     0.506     0  05:00      2.22    0.51    0.75
  GQ91                 CONDUIT     0.425     0  05:00      1.75    0.52    0.80
  GQ92                 CONDUIT     0.902     0  05:01      1.82    1.30    1.00
  GQ93                 CONDUIT     0.959     0  05:00      1.91    0.82    1.00
  GQ94                 CONDUIT     1.204     0  05:05      2.40    1.43    1.00
  GQ95                 CONDUIT     0.277     0  05:00      0.90    0.07    0.59
  GQ96                 CONDUIT     0.803     0  05:01      1.60    1.37    1.00
  GQ97                 CONDUIT     0.500     0  05:00      2.21    0.90    0.75
  GQ98                 CONDUIT     0.295     0  05:00      1.13    0.42    0.87
  GQ99                 CONDUIT     0.908     0  05:00      0.86    0.05    0.58
  GQ100                CONDUIT     0.653     0  05:00      3.14    1.12    0.69
  GQ101                CONDUIT     0.449     0  05:00      2.13    0.34    0.70
  GQ102                CONDUIT     1.865     0  05:00      4.50    0.57    0.77
  GQ103                CONDUIT     0.619     0  05:00      2.19    0.95    1.00
  GQ104                CONDUIT     1.390     0  04:17      5.02    1.01    1.00
  GQ105                CONDUIT     0.315     0  04:30      0.63    1.00    1.00
  GQ106                CONDUIT     0.482     0  05:00      2.14    0.48    0.74
  GQ107                CONDUIT     1.114     0  03:38      3.94    1.00    1.00
  GQ108                CONDUIT     0.829     0  03:55      1.65    1.00    1.00
  GQ109                CONDUIT     0.372     0  05:00      1.57    0.50    0.78
  GQ110                CONDUIT     0.607     0  05:00      1.23    0.09    0.60
  GQ111                CONDUIT     0.541     0  05:00      2.29    0.49    0.78
  GQ112                CONDUIT     1.669     0  05:00      3.36    0.30    0.47
  GQ113                CONDUIT     0.923     0  05:00      4.49    0.70    0.68
  GQ114                CONDUIT     0.552     0  05:00      0.91    0.23    0.72
  GQ115                CONDUIT     0.239     0  05:00      1.14    0.03    0.25
  GQ116                CONDUIT     0.343     0  05:00      0.73    0.05    0.57
  GQ117                CONDUIT     1.217     0  05:00      4.81    0.76    0.51
  GQ118                CONDUIT     0.460     0  05:00      2.47    0.16    0.52
  GQ119                CONDUIT     2.302     0  05:00      4.58    1.00    1.00
  GQ120                CONDUIT     0.000     0  00:00      0.00    0.00    0.50
  GQ121                CONDUIT     1.414     0  04:36      2.81    1.00    1.00
  GQ122                CONDUIT     0.691     0  05:00      2.11    0.13    0.62
  GQ123                CONDUIT     0.468     0  05:00      2.36    0.23    0.66
  GQ124                CONDUIT     0.289     0  05:00      1.24    0.13    0.54
  GQ125                CONDUIT     0.585     0  05:00      2.28    0.66    0.85
  GQ126                CONDUIT     0.723     0  05:00      2.96    0.69    0.81
  GQ127                CONDUIT     0.825     0  05:17      1.70    1.06    1.00
  GQ128                CONDUIT     2.452     0  05:00      3.05    0.53    0.78
  GQ129                CONDUIT     1.313     0  03:33      2.61    1.00    1.00
  GQ130                CONDUIT     1.073     0  04:25      3.79    1.00    1.00
  GQ131                CONDUIT     0.862     0  04:01      3.05    1.00    1.00
  
  
  ***************************
  Flow Classification Summary
  ***************************
  
  -------------------------------------------------------------------------------------
                      Adjusted    ---------- Fraction of Time in Flow Class ---------- 
                       /Actual         Up    Down  Sub   Sup   Up    Down  Norm  Inlet 
  Conduit               Length    Dry  Dry   Dry   Crit  Crit  Crit  Crit  Ltd   Ctrl  
  -------------------------------------------------------------------------------------
  GQ1                     1.00   0.03  0.00  0.00  0.27  0.70  0.00  0.00  0.00  0.00
  GQ2                     1.00   0.03  0.00  0.00  0.05  0.92  0.00  0.00  0.90  0.00
  GQ3                     1.00   0.03  0.00  0.00  0.00  0.97  0.00  0.00  0.44  0.00
  GQ4                     1.00   0.03  0.00  0.00  0.97  0.00  0.00  0.00  0.60  0.00
  GQ5                     1.00   0.03  0.00  0.00  0.97  0.00  0.00  0.00  0.71  0.00
  GQ6                     1.00   0.03  0.00  0.00  0.96  0.01  0.00  0.00  0.91  0.00
  GQ7                     1.00   0.03  0.00  0.00  0.45  0.52  0.00  0.00  0.06  0.00
  GQ8                     1.00   0.03  0.00  0.00  0.97  0.00  0.00  0.00  0.79  0.00
  GQ9                     1.00   0.03  0.00  0.00  0.57  0.40  0.00  0.00  0.82  0.00
  GQ10                    1.00   0.03  0.00  0.00  0.85  0.12  0.00  0.00  0.63  0.00
  GQ11                    1.00   0.03  0.00  0.00  0.51  0.46  0.00  0.00  0.90  0.00
  GQ12                    1.00   0.03  0.00  0.00  0.96  0.01  0.00  0.00  0.91  0.00
  GQ13                    1.00   0.03  0.00  0.00  0.97  0.00  0.00  0.00  0.91  0.00
  GQ14                    1.00   0.03  0.00  0.00  0.89  0.08  0.00  0.00  0.00  0.00
  GQ15                    1.00   0.03  0.00  0.00  0.00  0.97  0.00  0.00  0.01  0.00
  GQ16                    1.00   0.03  0.00  0.00  0.00  0.97  0.00  0.00  0.00  0.00
  GQ17                    1.00   0.03  0.00  0.00  0.53  0.44  0.00  0.00  0.91  0.00
  GQ18                    1.00   0.03  0.00  0.00  0.95  0.02  0.00  0.00  0.05  0.00
  GQ19                    1.00   0.03  0.00  0.00  0.49  0.49  0.00  0.00  0.91  0.00
  GQ20                    1.00   0.03  0.00  0.00  0.97  0.00  0.00  0.00  0.91  0.00
  GQ21                    1.00   0.03  0.00  0.00  0.74  0.23  0.00  0.00  0.91  0.00
  GQ22                    1.00   0.03  0.00  0.00  0.39  0.58  0.00  0.00  0.91  0.00
  GQ23                    1.00   0.03  0.00  0.00  0.24  0.73  0.00  0.00  0.13  0.00
  GQ24                    1.00   0.03  0.00  0.00  0.82  0.15  0.00  0.00  0.74  0.00
  GQ25                    1.00   0.03  0.00  0.00  0.00  0.97  0.00  0.00  0.01  0.00
  GQ26                    1.00   0.03  0.00  0.00  0.02  0.95  0.00  0.00  0.80  0.00
  GQ27                    1.00   0.03  0.00  0.00  0.80  0.17  0.00  0.00  0.72  0.00
  GQ28                    1.00   0.03  0.00  0.00  0.97  0.00  0.00  0.00  0.73  0.00
  GQ29                    1.00   0.03  0.00  0.00  0.97  0.00  0.00  0.00  0.14  0.00
  GQ30                    1.00   0.03  0.00  0.00  0.95  0.02  0.00  0.00  0.12  0.00
  GQ31                    1.00   0.03  0.00  0.00  0.97  0.00  0.00  0.00  0.73  0.00
  GQ32                    1.00   0.03  0.00  0.00  0.21  0.76  0.00  0.00  0.02  0.00
  GQ33                    1.00   0.03  0.00  0.00  0.82  0.15  0.00  0.00  0.71  0.00
  GQ34                    1.00   0.03  0.00  0.00  0.96  0.01  0.00  0.00  0.79  0.00
  GQ35                    1.00   0.03  0.00  0.00  0.42  0.55  0.00  0.00  0.61  0.00
  GQ36                    1.00   0.03  0.00  0.00  0.39  0.59  0.00  0.00  0.68  0.00
  GQ37                    1.00   0.03  0.00  0.00  0.97  0.00  0.00  0.00  0.73  0.00
  GQ38                    1.00   0.03  0.00  0.00  0.97  0.00  0.00  0.00  0.74  0.00
  GQ39                    1.00   0.03  0.00  0.00  0.94  0.03  0.00  0.00  0.73  0.00
  GQ40                    1.00   0.03  0.00  0.00  0.35  0.62  0.00  0.00  0.76  0.00
  GQ41                    1.00   0.03  0.00  0.00  0.97  0.00  0.00  0.00  0.70  0.00
  GQ42                    1.00   0.03  0.00  0.00  0.97  0.00  0.00  0.00  0.68  0.00
  GQ43                    1.00   0.03  0.00  0.00  0.40  0.57  0.00  0.00  0.72  0.00
  GQ44                    1.00   0.03  0.00  0.00  0.97  0.00  0.00  0.00  0.61  0.00
  GQ45                    1.00   0.03  0.00  0.00  0.21  0.76  0.00  0.00  0.82  0.00
  GQ46                    1.00   0.03  0.00  0.00  0.57  0.40  0.00  0.00  0.62  0.00
  GQ47                    1.00   0.03  0.00  0.00  0.97  0.00  0.00  0.00  0.91  0.00
  GQ48                    1.00   0.03  0.00  0.00  0.97  0.00  0.00  0.00  0.91  0.00
  GQ49                    1.00   0.03  0.00  0.00  0.55  0.42  0.00  0.00  0.91  0.00
  GQ50                    1.00   0.03  0.00  0.00  0.97  0.00  0.00  0.00  0.91  0.00
  GQ51                    1.00   0.03  0.00  0.00  0.29  0.68  0.00  0.00  0.63  0.00
  GQ52                    1.00   0.03  0.00  0.00  0.97  0.00  0.00  0.00  0.70  0.00
  GQ53                    1.00   0.03  0.00  0.00  0.97  0.00  0.00  0.00  0.69  0.00
  GQ54                    1.00   0.03  0.00  0.00  0.64  0.33  0.00  0.00  0.91  0.00
  GQ55                    1.00   0.03  0.00  0.00  0.76  0.21  0.00  0.00  0.91  0.00
  GQ56                    1.00   0.03  0.00  0.00  0.41  0.56  0.00  0.00  0.63  0.00
  GQ57                    1.00   0.03  0.00  0.00  0.97  0.00  0.00  0.00  0.91  0.00
  GQ58                    1.00   0.03  0.00  0.00  0.57  0.40  0.00  0.00  0.91  0.00
  GQ59                    1.00   0.03  0.00  0.00  0.97  0.00  0.00  0.00  0.69  0.00
  GQ60                    1.00   0.03  0.00  0.00  0.97  0.00  0.00  0.00  0.20  0.00
  GQ61                    1.00   0.03  0.00  0.00  0.97  0.00  0.00  0.00  0.91  0.00
  GQ62                    1.00   0.03  0.00  0.00  0.97  0.00  0.00  0.00  0.91  0.00
  GQ63                    1.00   0.03  0.00  0.00  0.96  0.01  0.00  0.00  0.91  0.00
  GQ64                    1.00   0.03  0.00  0.00  0.49  0.48  0.00  0.00  0.91  0.00
  GQ65                    1.00   0.03  0.00  0.00  0.97  0.00  0.00  0.00  0.91  0.00
  GQ66                    1.00   0.03  0.00  0.00  0.96  0.01  0.00  0.00  0.91  0.00
  GQ67                    1.00   0.03  0.00  0.00  0.97  0.00  0.00  0.00  0.07  0.00
  GQ68                    1.00   0.03  0.00  0.00  0.97  0.00  0.00  0.00  0.91  0.00
  GQ69                    1.00   0.03  0.00  0.00  0.55  0.42  0.00  0.00  0.91  0.00
  GQ70                    1.00   0.03  0.00  0.00  0.00  0.97  0.00  0.00  0.04  0.00
  GQ71                    1.00   0.03  0.00  0.00  0.00  0.97  0.00  0.00  0.16  0.00
  GQ72                    1.00   0.03  0.00  0.00  0.00  0.97  0.00  0.00  0.30  0.00
  GQ73                    1.00   0.03  0.00  0.00  0.00  0.97  0.00  0.00  0.02  0.00
  GQ74                    1.00   0.03  0.00  0.00  0.90  0.07  0.00  0.00  0.91  0.00
  GQ75                    1.00   0.03  0.00  0.00  0.97  0.00  0.00  0.00  0.91  0.00
  GQ76                    1.00   0.03  0.00  0.00  0.00  0.97  0.00  0.00  0.42  0.00
  GQ77                    1.00   0.03  0.97  0.00  0.00  0.00  0.00  0.00  0.00  0.00
  GQ78                    1.00   0.03  0.00  0.00  0.93  0.04  0.00  0.00  0.70  0.00
  GQ79                    1.00   0.03  0.00  0.00  0.97  0.00  0.00  0.00  0.10  0.00
  GQ80                    1.00   0.03  0.00  0.00  0.97  0.00  0.00  0.00  0.67  0.00
  GQ81                    1.00   0.03  0.00  0.00  0.97  0.00  0.00  0.00  0.24  0.00
  GQ82                    1.00   0.03  0.00  0.00  0.57  0.40  0.00  0.00  0.90  0.00
  GQ83                    1.00   0.03  0.00  0.00  0.00  0.97  0.00  0.00  0.91  0.00
  GQ84                    1.00   0.03  0.00  0.00  0.52  0.45  0.00  0.00  0.75  0.00
  GQ85                    1.00   0.03  0.00  0.00  0.97  0.00  0.00  0.00  0.69  0.00
  GQ86                    1.00   0.03  0.00  0.00  0.97  0.00  0.00  0.00  0.91  0.00
  GQ87                    1.00   0.03  0.00  0.00  0.97  0.00  0.00  0.00  0.91  0.00
  GQ88                    1.00   0.03  0.00  0.00  0.67  0.30  0.00  0.00  0.91  0.00
  GQ89                    1.00   0.03  0.00  0.00  0.96  0.01  0.00  0.00  0.83  0.00
  GQ90                    1.00   0.03  0.00  0.00  0.77  0.20  0.00  0.00  0.91  0.00
  GQ91                    1.00   0.03  0.00  0.00  0.96  0.01  0.00  0.00  0.82  0.00
  GQ92                    1.00   0.03  0.00  0.00  0.92  0.05  0.00  0.00  0.02  0.00
  GQ93                    1.00   0.03  0.00  0.00  0.97  0.00  0.00  0.00  0.74  0.00
  GQ94                    1.00   0.03  0.00  0.00  0.66  0.31  0.00  0.00  0.04  0.00
  GQ95                    1.00   0.03  0.00  0.00  0.97  0.00  0.00  0.00  0.91  0.00
  GQ96                    1.00   0.03  0.00  0.00  0.97  0.00  0.00  0.00  0.63  0.00
  GQ97                    1.00   0.03  0.00  0.00  0.02  0.95  0.00  0.00  0.58  0.00
  GQ98                    1.00   0.03  0.00  0.00  0.97  0.00  0.00  0.00  0.71  0.00
  GQ99                    1.00   0.03  0.00  0.00  0.96  0.01  0.00  0.00  0.91  0.00
  GQ100                   1.00   0.03  0.00  0.00  0.00  0.97  0.00  0.00  0.00  0.00
  GQ101                   1.00   0.03  0.00  0.00  0.76  0.21  0.00  0.00  0.91  0.00
  GQ102                   1.00   0.03  0.00  0.00  0.56  0.41  0.00  0.00  0.91  0.00
  GQ103                   1.00   0.03  0.00  0.00  0.97  0.00  0.00  0.00  0.74  0.00
  GQ104                   1.00   0.03  0.00  0.00  0.68  0.29  0.00  0.00  0.81  0.00
  GQ105                   1.00   0.03  0.00  0.00  0.97  0.00  0.00  0.00  0.08  0.00
  GQ106                   1.00   0.03  0.00  0.00  0.79  0.18  0.00  0.00  0.91  0.00
  GQ107                   1.00   0.03  0.00  0.00  0.85  0.12  0.00  0.00  0.73  0.00
  GQ108                   1.00   0.03  0.00  0.00  0.97  0.00  0.00  0.00  0.16  0.00
  GQ109                   1.00   0.03  0.00  0.00  0.92  0.05  0.00  0.00  0.82  0.00
  GQ110                   1.00   0.03  0.00  0.00  0.96  0.01  0.00  0.00  0.91  0.00
  GQ111                   1.00   0.03  0.00  0.00  0.77  0.20  0.00  0.00  0.81  0.00
  GQ112                   1.00   0.03  0.00  0.00  0.00  0.97  0.00  0.00  0.88  0.00
  GQ113                   1.00   0.03  0.00  0.00  0.00  0.97  0.00  0.00  0.88  0.00
  GQ114                   1.00   0.03  0.00  0.00  0.97  0.00  0.00  0.00  0.12  0.00
  GQ115                   1.00   0.03  0.00  0.00  0.95  0.02  0.00  0.00  0.91  0.00
  GQ116                   1.00   0.03  0.00  0.00  0.97  0.00  0.00  0.00  0.91  0.00
  GQ117                   1.00   0.03  0.00  0.00  0.00  0.97  0.00  0.00  0.00  0.00
  GQ118                   1.00   0.03  0.00  0.00  0.65  0.32  0.00  0.00  0.91  0.00
  GQ119                   1.00   0.03  0.00  0.00  0.92  0.06  0.00  0.00  0.71  0.00
  GQ120                   1.00   0.03  0.09  0.00  0.88  0.00  0.00  0.00  0.00  0.00
  GQ121                   1.00   0.03  0.00  0.00  0.96  0.01  0.00  0.00  0.11  0.00
  GQ122                   1.00   0.03  0.00  0.00  0.74  0.23  0.00  0.00  0.91  0.00
  GQ123                   1.00   0.03  0.00  0.00  0.65  0.32  0.00  0.00  0.91  0.00
  GQ124                   1.00   0.03  0.00  0.00  0.95  0.02  0.00  0.00  0.91  0.00
  GQ125                   1.00   0.03  0.00  0.00  0.96  0.01  0.00  0.00  0.77  0.00
  GQ126                   1.00   0.03  0.00  0.00  0.62  0.35  0.00  0.00  0.86  0.00
  GQ127                   1.00   0.03  0.00  0.00  0.97  0.00  0.00  0.00  0.39  0.00
  GQ128                   1.00   0.03  0.00  0.00  0.43  0.54  0.00  0.00  0.76  0.00
  GQ129                   1.00   0.03  0.00  0.00  0.97  0.00  0.00  0.00  0.63  0.00
  GQ130                   1.00   0.03  0.00  0.00  0.90  0.07  0.00  0.00  0.63  0.00
  GQ131                   1.00   0.03  0.00  0.00  0.92  0.05  0.00  0.00  0.72  0.00
  
  
  *************************
  Conduit Surcharge Summary
  *************************
  
  ----------------------------------------------------------------------------
                                                           Hours        Hours 
                         --------- Hours Full --------   Above Full   Capacity
  Conduit                Both Ends  Upstream  Dnstream   Normal Flow   Limited
  ----------------------------------------------------------------------------
  GQ1                         0.01      0.94      0.01      0.01         0.01
  GQ4                         2.84      2.84      8.65      0.01         0.01
  GQ5                         1.72      1.72      8.32      0.01         0.01
  GQ6                         0.01      0.01      1.72      0.01         0.01
  GQ7                         2.19      2.19      2.39      0.01         0.01
  GQ8                         0.13      0.13      2.19      0.01         0.01
  GQ9                         0.13      0.13      9.06      0.01         0.01
  GQ10                        2.95      2.95      9.16      0.07         0.01
  GQ12                        0.01      0.01      4.47      0.01         0.01
  GQ13                        0.01      0.01      2.50      0.01         0.01
  GQ16                        0.01      0.89      0.01      0.01         0.01
  GQ18                        0.01      0.01      3.63      4.14         0.01
  GQ20                        0.01      0.01      1.56      0.01         0.01
  GQ21                        0.01      0.01      1.56      0.01         0.01
  GQ22                        0.01      0.01      0.69      0.01         0.01
  GQ23                        0.69      0.69      0.90      0.01         0.01
  GQ24                        0.99      0.99      8.91      0.01         0.01
  GQ25                        0.01      0.97      0.01      0.99         0.01
  GQ26                        0.01      0.01      1.11      0.01         0.01
  GQ27                        1.11      1.11      7.85      0.01         0.01
  GQ28                        0.01      0.01      8.47      0.01         0.01
  GQ29                        7.78      7.78      8.47      0.01         0.01
  GQ30                        7.85      7.85      8.74      0.01         0.01
  GQ31                        0.97      0.97      9.21      0.01         0.01
  GQ32                        0.73      1.87      0.73      1.79         0.73
  GQ33                        1.87      1.87      9.21      0.01         0.01
  GQ34                        0.01      0.01      1.87      0.01         0.01
  GQ35                        1.81      1.83      1.87      0.13         0.01
  GQ36                        1.83      1.83      1.87      1.91         1.81
  GQ37                        0.73      0.73      9.01      0.01         0.01
  GQ38                        0.01      0.01      9.01      0.01         0.01
  GQ39                        1.66      1.66      4.47      0.01         0.01
  GQ40                        0.73      0.73      1.66      0.01         0.01
  GQ41                        0.89      0.89      8.36      0.01         0.01
  GQ42                        2.14      2.14      8.61      0.01         0.01
  GQ43                        1.95      1.95      2.14      0.05         0.01
  GQ44                        2.60      2.60      3.63      0.01         0.01
  GQ45                        0.01      0.01      2.14      0.01         0.01
  GQ46                        2.14      2.14      2.60      0.01         0.01
  GQ47                        0.01      0.01      8.47      0.01         0.01
  GQ48                        0.01      0.01      8.80      0.01         0.01
  GQ49                        0.01      0.01      8.80      0.01         0.01
  GQ50                        0.01      0.01      1.60      0.01         0.01
  GQ51                        0.94      1.60      0.94      1.72         0.94
  GQ52                        0.78      0.78      7.78      0.72         0.71
  GQ53                        2.05      2.05      8.74      0.01         0.01
  GQ54                        0.01      0.01      8.83      0.01         0.01
  GQ55                        0.01      0.01      8.83      0.01         0.01
  GQ56                        1.96      2.02      2.19      0.21         0.05
  GQ57                        0.01      0.01      2.02      0.01         0.01
  GQ58                        0.01      0.01      7.90      0.01         0.01
  GQ59                        2.14      2.14      7.90      0.01         0.01
  GQ60                        1.72      1.72      2.22      0.01         0.01
  GQ61                        0.01      0.01      7.65      0.01         0.01
  GQ62                        0.01      0.01      7.68      0.01         0.01
  GQ63                        0.01      0.01      7.69      0.01         0.01
  GQ66                        0.01      0.01      7.72      0.01         0.01
  GQ67                        7.66      7.66      7.68      0.01         0.01
  GQ68                        0.01      0.01      7.78      0.01         0.01
  GQ69                        0.01      0.01      8.09      0.01         0.01
  GQ75                        0.01      0.01      7.78      0.01         0.01
  GQ78                        1.93      1.93      8.95      0.01         0.01
  GQ79                        0.01      0.01      8.95      0.01         0.01
  GQ80                        1.93      1.93      4.18      0.01         0.01
  GQ81                        4.15      4.18      4.47      3.85         1.29
  GQ82                        0.01      0.01      4.47      0.01         0.01
  GQ83                        0.01      0.01      1.06      0.01         0.01
  GQ84                        1.53      1.53      2.17      0.13         0.01
  GQ85                        1.53      1.53      9.26      0.01         0.01
  GQ86                        0.01      0.01      8.22      0.01         0.01
  GQ87                        0.01      0.01      8.22      0.01         0.01
  GQ88                        0.01      0.01      8.67      0.01         0.01
  GQ89                        0.01      0.01      7.82      0.01         0.01
  GQ90                        0.01      0.01      7.76      0.01         0.01
  GQ91                        0.01      0.01      7.89      0.01         0.01
  GQ92                        1.49      1.49      1.60      1.47         1.41
  GQ93                        1.60      1.60      1.92      0.01         0.01
  GQ94                        1.91      1.92      1.95      1.94         1.86
  GQ95                        0.01      0.01      8.69      0.01         0.01
  GQ96                        1.46      1.46      1.49      1.62         1.42
  GQ98                        0.01      0.01      8.17      0.01         0.01
  GQ99                        0.01      0.01      7.69      0.01         0.01
  GQ100                       0.01      0.88      0.01      0.84         0.01
  GQ101                       0.01      0.01      7.88      0.01         0.01
  GQ102                       0.01      0.01      8.47      0.01         0.01
  GQ103                       0.88      0.88      8.81      0.01         0.01
  GQ104                       0.73      0.73      8.81      0.07         0.01
  GQ105                       8.27      8.27      8.47      4.25         0.01
  GQ106                       0.01      0.01      8.47      0.01         0.01
  GQ107                       1.66      1.66      8.47      0.01         0.01
  GQ108                       3.94      3.94      8.27      0.01         0.01
  GQ109                       0.01      0.01      1.66      0.01         0.01
  GQ110                       0.01      0.01      7.78      0.01         0.01
  GQ111                       0.01      0.01      7.89      0.01         0.01
  GQ114                       0.01      0.01      8.71      0.01         0.01
  GQ116                       0.01      0.01      7.96      0.01         0.01
  GQ119                       2.02      2.02      8.90      0.01         0.01
  GQ120                       0.01      0.01      8.78      0.01         0.01
  GQ121                       8.34      8.34      8.90      0.01         0.01
  GQ122                       0.01      0.01      8.34      0.01         0.01
  GQ123                       0.01      0.01      8.46      0.01         0.01
  GQ125                       0.01      0.01      7.89      0.01         0.01
  GQ126                       0.01      0.01      7.88      0.01         0.01
  GQ127                       1.95      1.95      2.02      0.12         0.08
  GQ128                       0.01      0.01      1.82      0.01         0.01
  GQ129                       2.39      2.39      8.91      0.01         0.01
  GQ130                       2.55      2.55      9.41      0.01         0.01
  GQ131                       1.60      1.60      9.24      0.01         0.01
  

  Analysis begun on:  Sat Mar 25 16:20:49 2023
  Analysis ended on:  Sat Mar 25 16:20:52 2023
  Total elapsed time: 00:00:03