
  OWA STORM WATER MANAGEMENT MODEL - VERSION v5.1.14 (OWA 2022-07-31)
  --------------------------------------------------------------

  INP file created by DSDAConvertToSwmmTools 
  version 0.0.1 EcoVista 
  Title/Notes: 
  
  
  *********************************************************
  NOTE: The summary statistics displayed in this report are
  based on results found at every computational time step,  
  not just on results from each reporting time step.
  *********************************************************
  
  ****************
  Analysis Options
  ****************
  Flow Units ............... CMS
  Process Models:
    Rainfall/Runoff ........ YES
    RDII ................... NO
    Snowmelt ............... NO
    Groundwater ............ NO
    Flow Routing ........... YES
    Ponding Allowed ........ NO
    Water Quality .......... NO
  Infiltration Method ...... GREEN_AMPT
  Flow Routing Method ...... DYNWAVE
  Surcharge Method ......... EXTRAN
  Starting Date ............ 07/15/2020 00:00:00
  Ending Date .............. 07/15/2020 09:00:00
  Antecedent Dry Days ...... 0.0
  Report Time Step ......... 00:30:00
  Wet Time Step ............ 00:05:00
  Dry Time Step ............ 01:00:00
  Routing Time Step ........ 30.00 sec
  Variable Time Step ....... YES
  Maximum Trials ........... 8
  Number of Threads ........ 1
  Head Tolerance ........... 0.001500 m
  
  
  **************************        Volume         Depth
  Runoff Quantity Continuity     hectare-m            mm
  **************************     ---------       -------
  Total Precipitation ......        92.319        23.100
  Evaporation Loss .........         2.995         0.749
  Infiltration Loss ........        24.672         6.173
  Surface Runoff ...........        56.909        14.240
  Final Storage ............         7.894         1.975
  Continuity Error (%) .....        -0.163
  
  
  **************************        Volume        Volume
  Flow Routing Continuity        hectare-m      10^6 ltr
  **************************     ---------     ---------
  Dry Weather Inflow .......         0.000         0.000
  Wet Weather Inflow .......        56.796       567.966
  Groundwater Inflow .......         0.000         0.000
  RDII Inflow ..............         0.000         0.000
  External Inflow ..........         0.000         0.000
  External Outflow .........         5.504        55.039
  Flooding Loss ............        49.746       497.467
  Evaporation Loss .........         0.000         0.000
  Exfiltration Loss ........         0.000         0.000
  Initial Stored Volume ....         0.000         0.000
  Final Stored Volume ......         1.383        13.832
  Continuity Error (%) .....         0.287
  
  
  *************************
  Highest Continuity Errors
  *************************
  Node jd51 (9.57%)
  Node jd59 (7.82%)
  Node jd64 (7.75%)
  Node jd55 (6.94%)
  Node jd31 (6.94%)
  
  
  ***************************
  Time-Step Critical Elements
  ***************************
  Link GQ73 (96.52%)
  
  
  ********************************
  Highest Flow Instability Indexes
  ********************************
  Link GQ67 (26)
  Link GQ29 (12)
  Link GQ114 (7)
  Link GQ46 (6)
  Link GQ44 (4)
  
  
  *************************
  Routing Time Step Summary
  *************************
  Minimum Time Step           :     0.59 sec
  Average Time Step           :     8.54 sec
  Maximum Time Step           :    30.00 sec
  Percent in Steady State     :    -0.00
  Average Iterations per Step :     4.18
  Percent Not Converging      :    17.64
  
  
  ***************************
  Subcatchment Runoff Summary
  ***************************
  
  ------------------------------------------------------------------------------------------------------------------------------
                            Total      Total      Total      Total     Imperv       Perv      Total       Total     Peak  Runoff
                           Precip      Runon       Evap      Infil     Runoff     Runoff     Runoff      Runoff   Runoff   Coeff
  Subcatchment                 mm         mm         mm         mm         mm         mm         mm    10^6 ltr      CMS
  ------------------------------------------------------------------------------------------------------------------------------
  1                         23.10       0.00       0.45      12.94       8.68       0.00       8.68        3.44     0.36   0.376
  2                         23.10       0.00       0.80       4.92      15.14       0.00      15.14       13.69     1.31   0.655
  3                         23.10       0.00       0.84       4.21      15.92       0.00      15.92        6.37     0.68   0.689
  4                         23.10       0.00       0.86       3.62      16.55       0.00      16.55        1.39     0.15   0.717
  5                         23.10       0.00       0.76       5.88      14.64       0.00      14.64        1.81     0.20   0.634
  6                         23.10       0.00       0.73       6.62      14.06       0.00      14.06        1.31     0.14   0.609
  7                         23.10       0.00       0.76       5.91      14.40       0.00      14.40        6.28     0.63   0.623
  8                         23.10       0.00       0.97       1.29      18.34       0.00      18.34        2.55     0.27   0.794
  9                         23.10       0.00       0.99       0.65      18.93       0.00      18.93        2.22     0.24   0.820
  10                        23.10       0.00       0.86       3.76      16.33       0.00      16.33        3.68     0.39   0.707
  11                        23.10       0.00       0.92       2.21      17.54       0.00      17.54        8.70     0.91   0.759
  12                        23.10       0.00       0.73       6.64      13.90       0.00      13.90        6.78     0.72   0.602
  13                        23.10       0.00       0.91       2.49      17.32       0.00      17.32        7.83     0.82   0.750
  14                        23.10       0.00       0.91       2.52      17.40       0.00      17.40        3.28     0.36   0.753
  15                        23.10       0.00       0.84       4.06      16.05       0.00      16.05        5.42     0.58   0.695
  16                        23.10       0.00       0.87       3.36      16.61       0.00      16.61        4.91     0.52   0.719
  17                        23.10       0.00       0.82       4.61      15.58       0.00      15.58        6.52     0.69   0.675
  18                        23.10       0.00       0.94       1.82      17.86       0.00      17.86        7.38     0.77   0.773
  19                        23.10       0.00       0.94       1.90      17.77       0.00      17.77        4.00     0.41   0.769
  20                        23.10       0.00       0.93       2.03      17.54       0.00      17.54        9.41     0.92   0.759
  21                        23.10       0.00       0.99       0.68      18.80       0.00      18.80        5.90     0.62   0.814
  22                        23.10       0.00       0.97       1.09      18.43       0.00      18.43        2.27     0.23   0.798
  23                        23.10       0.00       0.90       2.83      16.97       0.00      16.97        9.72     0.99   0.735
  24                        23.10       0.00       0.87       3.53      16.37       0.00      16.37        2.90     0.29   0.709
  25                        23.10       0.00       0.93       2.17      17.66       0.00      17.66        3.58     0.38   0.764
  26                        23.10       0.00       0.79       5.27      14.88       0.00      14.88        5.22     0.51   0.644
  27                        23.10       0.00       0.95       1.73      17.79       0.00      17.79        7.52     0.74   0.770
  28                        23.10       0.00       0.97       1.27      18.23       0.00      18.23        8.62     0.87   0.789
  29                        23.10       0.00       0.86       3.58      16.51       0.00      16.51        3.85     0.42   0.715
  30                        23.10       0.00       0.99       0.78      18.94       0.00      18.94        1.36     0.15   0.820
  31                        23.10       0.00       1.00       0.49      19.00       0.00      19.00        4.19     0.44   0.822
  32                        23.10       0.00       0.98       1.03      18.51       0.00      18.51        8.00     0.84   0.801
  33                        23.10       0.00       0.99       0.75      18.71       0.00      18.71        6.59     0.68   0.810
  34                        23.10       0.00       0.92       2.34      17.45       0.00      17.45        5.11     0.54   0.755
  35                        23.10       0.00       0.95       1.74      17.93       0.00      17.93        7.44     0.78   0.776
  36                        23.10       0.00       0.78       5.50      14.88       0.00      14.88        5.86     0.62   0.644
  37                        23.10       0.00       0.97       1.25      18.33       0.00      18.33        4.07     0.42   0.794
  38                        23.10       0.00       0.91       2.62      17.24       0.00      17.24        6.57     0.69   0.746
  39                        23.10       0.00       0.82       4.59      15.63       0.00      15.63        6.60     0.70   0.676
  40                        23.10       0.00       0.91       2.50      17.33       0.00      17.33        3.96     0.42   0.750
  41                        23.10       0.00       0.93       2.03      17.78       0.00      17.78        3.51     0.38   0.770
  42                        23.10       0.00       0.93       2.05      17.55       0.00      17.55        4.34     0.43   0.760
  43                        23.10       0.00       0.78       5.40      14.84       0.00      14.84       11.73     1.17   0.643
  44                        23.10       0.00       0.84       4.21      15.81       0.00      15.81        7.64     0.77   0.685
  45                        23.10       0.00       0.79       5.36      14.92       0.00      14.92       10.80     1.10   0.646
  46                        23.10       0.00       0.76       5.97      14.54       0.00      14.54        7.27     0.78   0.629
  47                        23.10       0.00       0.80       5.11      15.12       0.00      15.12       17.63     1.80   0.655
  48                        23.10       0.00       0.95       1.60      17.88       0.00      17.88       10.37     1.00   0.774
  49                        23.10       0.00       0.87       3.42      16.38       0.00      16.38       11.09     1.08   0.709
  50                        23.10       0.00       0.96       1.30      18.01       0.00      18.01        7.08     0.64   0.780
  51                        23.10       0.00       0.92       2.24      17.27       0.00      17.27        3.23     0.30   0.748
  52                        23.10       0.00       0.45      12.96       8.71       0.00       8.71        8.94     0.97   0.377
  53                        23.10       0.00       0.65       8.41      12.51       0.00      12.51       13.32     1.42   0.542
  54                        23.10       0.00       0.80       4.97      15.29       0.00      15.29        3.73     0.40   0.662
  55                        23.10       0.00       0.46      12.72       8.90       0.00       8.90        7.02     0.76   0.385
  56                        23.10       0.00       0.17      19.19       3.45       0.00       3.45        2.81     0.30   0.149
  57                        23.10       0.00       0.91       2.57      17.09       0.00      17.09       14.20     1.38   0.740
  58                        23.10       0.00       0.84       4.08      16.03       0.00      16.03        2.64     0.28   0.694
  59                        23.10       0.00       0.82       4.54      15.78       0.00      15.78        2.01     0.22   0.683
  60                        23.10       0.00       0.31      16.14       6.04       0.00       6.04        1.73     0.19   0.261
  61                        23.10       0.00       0.48      12.28       9.18       0.00       9.18        3.46     0.37   0.397
  62                        23.10       0.00       0.67       8.04      12.68       0.00      12.68       14.85     1.50   0.549
  63                        23.10       0.00       0.91       2.55      17.03       0.00      17.03       32.93     3.05   0.737
  64                        23.10       0.00       0.68       7.77      13.03       0.00      13.03        2.80     0.29   0.564
  65                        23.10       0.00       0.92       2.25      17.29       0.00      17.29       11.63     1.10   0.749
  66                        23.10       0.00       0.73       6.68      13.76       0.00      13.76        3.51     0.35   0.596
  67                        23.10       0.00       0.68       7.76      13.08       0.00      13.08        4.23     0.44   0.566
  68                        23.10       0.00       0.81       4.69      15.56       0.00      15.56        1.73     0.19   0.674
  69                        23.10       0.00       0.48      12.30       9.35       0.00       9.35        2.99     0.32   0.405
  70                        23.10       0.00       0.67       7.90      12.83       0.00      12.83       10.56     1.10   0.555
  71                        23.10       0.00       0.83       4.32      15.86       0.00      15.86        1.95     0.21   0.687
  72                        23.10       0.00       0.88       3.30      16.71       0.00      16.71        2.08     0.22   0.724
  73                        23.10       0.00       0.79       5.16      15.24       0.00      15.24        2.53     0.28   0.660
  74                        23.10       0.00       0.76       6.00      14.51       0.00      14.51        3.12     0.34   0.628
  75                        23.10       0.00       0.84       4.09      16.06       0.00      16.06        2.31     0.25   0.695
  76                        23.10       0.00       0.89       3.10      16.92       0.00      16.92        1.64     0.18   0.732
  77                        23.10       0.00       0.94       1.78      17.95       0.00      17.95        1.94     0.21   0.777
  78                        23.10       0.00       0.91       2.53      17.30       0.00      17.30        1.90     0.20   0.749
  79                        23.10       0.00       0.40      14.08       7.78       0.00       7.78        8.25     0.89   0.337
  80                        23.10       0.00       0.75       6.09      14.27       0.00      14.27        8.93     0.91   0.618
  81                        23.10       0.00       0.76       5.83      14.48       0.00      14.48        6.31     0.63   0.627
  82                        23.10       0.00       0.73       6.56      13.88       0.00      13.88       12.73     1.28   0.601
  83                        23.10       0.00       0.92       2.42      17.46       0.00      17.46        2.13     0.23   0.756
  84                        23.10       0.00       0.86       3.59      16.43       0.00      16.43        1.96     0.21   0.711
  85                        23.10       0.00       1.01       0.18      19.36       0.00      19.36        1.80     0.20   0.838
  86                        23.10       0.00       0.94       1.95      17.81       0.00      17.81        2.62     0.28   0.771
  87                        23.10       0.00       1.00       0.49      18.94       0.00      18.94        2.49     0.26   0.820
  88                        23.10       0.00       0.90       2.88      17.08       0.00      17.08        1.64     0.18   0.740
  89                        23.10       0.00       0.94       1.86      17.92       0.00      17.92        3.45     0.37   0.776
  90                        23.10       0.00       1.02       0.00      19.58       0.00      19.58        0.22     0.02   0.848
  91                        23.10       0.00       0.85       3.87      16.02       0.00      16.02        3.49     0.34   0.694
  92                        23.10       0.00       0.94       1.80      17.94       0.00      17.94        2.24     0.24   0.777
  93                        23.10       0.00       0.77       5.74      14.64       0.00      14.64        7.49     0.78   0.634
  94                        23.10       0.00       0.69       7.48      13.39       0.00      13.39        0.94     0.10   0.580
  95                        23.10       0.00       1.02       0.03      19.47       0.00      19.47        0.42     0.05   0.843
  96                        23.10       0.00       0.82       4.47      15.76       0.00      15.76        1.93     0.21   0.682
  97                        23.10       0.00       1.00       0.49      19.04       0.00      19.04        1.89     0.20   0.824
  98                        23.10       0.00       0.83       4.36      15.87       0.00      15.87        1.96     0.21   0.687
  99                        23.10       0.00       0.41      13.82       8.02       0.00       8.02        2.98     0.32   0.347
  100                       23.10       0.00       0.46      12.78       8.91       0.00       8.91        2.29     0.25   0.386
  101                       23.10       0.00       0.47      12.53       9.09       0.00       9.09        4.45     0.47   0.393
  102                       23.10       0.00       0.76       5.87      14.56       0.00      14.56        3.55     0.38   0.630
  103                       23.10       0.00       0.25      17.34       5.05       0.00       5.05        1.83     0.20   0.218
  104                       23.10       0.00       0.17      19.20       3.40       0.00       3.40        3.30     0.36   0.147
  105                       23.10       0.00       0.84       4.10      16.09       0.00      16.09        2.10     0.23   0.697
  106                       23.10       0.00       0.46      12.81       8.85       0.00       8.85        2.16     0.23   0.383
  
  
  ******************
  Node Depth Summary
  ******************
  
  ---------------------------------------------------------------------------------
                                 Average  Maximum  Maximum  Time of Max    Reported
                                   Depth    Depth      HGL   Occurrence   Max Depth
  Node                 Type       Meters   Meters   Meters  days hr:min      Meters
  ---------------------------------------------------------------------------------
  jd1                  JUNCTION     0.10     0.16   273.16     0  02:00        0.16
  jd2                  JUNCTION     0.25     0.44   267.44     0  02:02        0.44
  jd3                  JUNCTION     2.80     3.00   266.00     0  01:32        3.00
  jd4                  JUNCTION     1.28     3.00   270.00     0  01:46        3.00
  jd5                  JUNCTION     0.07     0.12   274.12     0  02:00        0.12
  jd6                  JUNCTION     0.08     0.14   275.14     0  02:00        0.14
  jd7                  JUNCTION     0.29     0.44   264.54     0  02:00        0.44
  jd8                  JUNCTION     1.70     3.00   267.00     0  01:33        3.00
  jd9                  JUNCTION     1.31     3.00   268.00     0  01:38        3.00
  jd10                 JUNCTION     2.83     3.00   273.00     0  01:27        3.00
  jd11                 JUNCTION     0.07     0.13   282.13     0  02:00        0.13
  jd12                 JUNCTION     2.83     3.00   272.00     0  01:26        3.00
  jd13                 JUNCTION     0.09     0.16   289.16     0  02:00        0.16
  jd14                 JUNCTION     0.19     0.35   280.35     0  02:00        0.35
  jd15                 JUNCTION     0.20     0.35   278.35     0  02:02        0.35
  jd16                 JUNCTION     0.22     0.39   274.39     0  02:01        0.39
  jd17                 JUNCTION     2.11     3.00   278.80     0  01:37        3.00
  jd18                 JUNCTION     0.20     0.42   279.42     0  02:01        0.41
  jd19                 JUNCTION     0.77     3.00   270.00     0  01:42        3.00
  jd20                 JUNCTION     0.17     0.25   273.25     0  02:00        0.25
  jd21                 JUNCTION     2.80     3.00   273.00     0  01:31        3.00
  jd22                 JUNCTION     1.45     3.00   275.00     0  01:34        3.00
  jd23                 JUNCTION     0.17     0.31   278.31     0  02:00        0.31
  jd24                 JUNCTION     0.11     0.18   285.18     0  02:00        0.18
  jd25                 JUNCTION     0.17     0.31   279.31     0  02:00        0.31
  jd26                 JUNCTION     0.20     0.36   285.36     0  02:00        0.35
  jd27                 JUNCTION     0.16     0.27   291.27     0  02:01        0.27
  jd28                 JUNCTION     2.84     3.00   290.00     0  01:23        3.00
  jd29                 JUNCTION     0.07     0.13   299.13     0  02:00        0.13
  jd30                 JUNCTION     0.10     0.17   290.17     0  02:01        0.16
  jd31                 JUNCTION     0.96     3.00   275.00     0  01:39        1.14
  jd32                 JUNCTION     2.83     3.00   275.00     0  01:27        3.00
  jd33                 JUNCTION     0.14     0.25   289.25     0  02:00        0.25
  jd34                 JUNCTION     0.16     0.29   294.29     0  02:00        0.29
  jd35                 JUNCTION     2.86     3.00   292.00     0  01:20        3.00
  jd36                 JUNCTION     0.24     0.44   299.44     0  02:01        0.44
  jd37                 JUNCTION     0.23     0.43   303.43     0  02:00        0.42
  jd38                 JUNCTION     0.28     0.51   297.51     0  02:01        0.50
  jd39                 JUNCTION     2.80     3.00   297.00     0  01:32        3.00
  jd40                 JUNCTION     0.51     3.00   302.00     0  01:54        3.00
  jd41                 JUNCTION     2.75     3.00   296.00     0  01:45        3.00
  jd42                 JUNCTION     0.15     0.25   305.25     0  02:00        0.25
  jd43                 JUNCTION     0.50     3.00   300.00     0  01:49        3.00
  jd44                 JUNCTION     0.52     3.00   286.00     0  01:54        3.00
  jd45                 JUNCTION     2.81     3.00   282.00     0  01:30        3.00
  jd46                 JUNCTION     0.21     0.33   275.33     0  02:03        0.32
  jd47                 JUNCTION     0.12     0.21   315.21     0  02:00        0.21
  jd48                 JUNCTION     0.08     0.15   325.15     0  02:00        0.15
  jd49                 JUNCTION     0.19     0.33   289.33     0  02:00        0.32
  jd50                 JUNCTION     2.85     3.00   278.00     0  01:23        3.00
  jd51                 JUNCTION     2.73     3.00   313.00     0  01:46        3.00
  jd52                 JUNCTION     0.29     0.57   323.57     0  02:01        0.56
  jd53                 JUNCTION     0.30     0.62   322.62     0  02:02        0.61
  jd54                 JUNCTION     0.21     0.38   326.38     0  02:01        0.38
  jd55                 JUNCTION     1.28     3.00   325.00     0  01:43        1.79
  jd56                 JUNCTION     0.14     0.26   327.26     0  02:00        0.26
  jd59                 JUNCTION     2.71     3.00   320.80     0  01:49        3.00
  jd60                 JUNCTION     2.84     3.00   319.00     0  01:25        3.00
  jd61                 JUNCTION     0.11     0.19   329.19     0  02:00        0.19
  jd62                 JUNCTION     0.05     0.09   335.09     0  02:00        0.09
  jd63                 JUNCTION     0.05     0.09   324.09     0  02:00        0.09
  jd64                 JUNCTION     2.53     3.00   321.00     0  01:49        2.83
  jd65                 JUNCTION     1.82     3.00   307.00     0  01:35        3.00
  jd66                 JUNCTION     2.82     3.00   304.00     0  01:28        3.00
  jd69                 JUNCTION     0.17     0.31   333.31     0  02:00        0.31
  jd79                 JUNCTION     2.75     3.00   274.00     0  01:24        3.00
  jd80                 JUNCTION     2.18     3.00   279.00     0  01:28        3.00
  jd81                 JUNCTION     0.11     0.19   288.19     0  02:00        0.19
  jd83                 JUNCTION     2.87     3.00   323.00     0  01:17        3.00
  jd84                 JUNCTION     0.17     0.34   323.34     0  02:00        0.34
  jd85                 JUNCTION     2.83     3.00   324.00     0  01:26        3.00
  jd87                 JUNCTION     2.83     3.00   322.00     0  01:26        3.00
  jd89                 JUNCTION     0.12     0.21   324.21     0  02:00        0.21
  jd90                 JUNCTION     0.10     0.19   328.19     0  02:00        0.19
  jd92                 JUNCTION     0.11     0.19   326.19     0  02:00        0.19
  jd93                 JUNCTION     0.31     0.60   324.60     0  02:01        0.59
  jd94                 JUNCTION     0.19     0.34   326.54     0  02:02        0.33
  jd95                 JUNCTION     0.25     0.45   327.45     0  02:00        0.45
  jd96                 JUNCTION     2.85     3.00   308.00     0  01:22        3.00
  jd97                 JUNCTION     0.25     0.46   327.66     0  02:00        0.46
  jd98                 JUNCTION     0.14     0.25   329.25     0  02:00        0.25
  jd99                 JUNCTION     2.82     3.00   327.00     0  01:28        3.00
  jd101                JUNCTION     0.09     0.15   321.15     0  02:00        0.15
  jd102                JUNCTION     0.17     0.31   324.31     0  02:00        0.31
  jd103                JUNCTION     0.09     0.15   318.15     0  02:00        0.15
  jd106                JUNCTION     2.77     3.00   287.00     0  01:38        3.00
  jd107                JUNCTION     0.16     0.28   332.28     0  02:00        0.28
  jd108                JUNCTION     1.10     1.89   327.89     0  01:25        1.30
  jd109                JUNCTION     0.12     0.22   343.22     0  02:00        0.22
  jd110                JUNCTION     2.84     3.00   327.00     0  01:25        3.00
  jd111                JUNCTION     0.06     0.10   344.10     0  02:00        0.10
  jd112                JUNCTION     0.07     0.13   334.13     0  02:00        0.13
  jd113                JUNCTION     0.08     0.14   348.14     0  02:00        0.14
  jd114                JUNCTION     2.82     3.00   317.00     0  01:29        3.00
  jd117                JUNCTION     1.03     3.00   319.00     0  01:32        1.49
  jd118                JUNCTION     0.07     0.12   330.12     0  02:00        0.12
  jd120                JUNCTION     0.12     0.21   327.21     0  02:00        0.21
  jd121                JUNCTION     0.12     0.22   320.22     0  02:00        0.22
  jd122                JUNCTION     2.81     3.00   276.00     0  01:31        3.00
  jd123                JUNCTION     2.80     3.00   276.20     0  01:33        3.00
  jd124                JUNCTION     2.87     3.00   271.00     0  01:15        3.00
  jd125                JUNCTION     0.94     3.00   278.00     0  01:44        3.00
  jd126                JUNCTION     2.86     3.00   275.00     0  01:19        3.00
  jd135                JUNCTION     0.10     0.18   289.18     0  02:00        0.18
  jd136                JUNCTION     0.20     0.36   341.36     0  02:00        0.36
  psk1                 OUTFALL      0.07     0.13   279.13     0  02:00        0.13
  psk2                 OUTFALL      0.10     0.16   270.16     0  02:01        0.16
  psk3                 OUTFALL      0.22     0.39   271.39     0  02:01        0.39
  psk4                 OUTFALL      0.00     0.00   280.00     0  00:00        0.00
  psk5                 OUTFALL      0.09     0.16   263.16     0  02:00        0.16
  psk6                 OUTFALL      0.07     0.11   259.11     0  02:00        0.11
  psk7                 OUTFALL      0.29     0.44   262.44     0  02:00        0.44
  psk8                 OUTFALL      0.00     0.00   317.00     0  00:00        0.00
  
  
  *******************
  Node Inflow Summary
  *******************
  
  -------------------------------------------------------------------------------------------------
                                  Maximum  Maximum                  Lateral       Total        Flow
                                  Lateral    Total  Time of Max      Inflow      Inflow     Balance
                                   Inflow   Inflow   Occurrence      Volume      Volume       Error
  Node                 Type           CMS      CMS  days hr:min    10^6 ltr    10^6 ltr     Percent
  -------------------------------------------------------------------------------------------------
  jd1                  JUNCTION     0.364    0.564     0  02:00        3.43        5.59       0.299
  jd2                  JUNCTION     0.507    0.702     0  02:00        5.21        7.17       0.471
  jd3                  JUNCTION     0.629    1.796     0  02:00        6.27        21.3       1.892
  jd4                  JUNCTION     0.735    0.829     0  02:00         7.5        8.41       0.542
  jd5                  JUNCTION     0.239    0.406     0  02:00        2.21        3.89       0.142
  jd6                  JUNCTION     0.270    0.270     0  02:00        2.55        2.55       0.188
  jd7                  JUNCTION     0.144    1.706     0  02:00         1.3        21.7       0.273
  jd8                  JUNCTION     0.198    1.144     0  02:00        1.81        15.8       1.362
  jd9                  JUNCTION     0.153    1.220     0  02:00        1.39        14.4       0.397
  jd10                 JUNCTION     0.395    0.500     0  02:00        3.67        4.67       2.187
  jd11                 JUNCTION     0.577    0.577     0  02:00        5.41        5.41       0.224
  jd12                 JUNCTION     0.425    0.922     0  02:00        4.06        8.79       1.569
  jd13                 JUNCTION     0.770    0.770     0  02:00        7.36        7.36       0.175
  jd14                 JUNCTION     0.870    0.983     0  02:00         8.6        9.68       0.353
  jd15                 JUNCTION     0.384    0.804     0  02:00        3.57        7.73       0.967
  jd16                 JUNCTION     0.417    1.510     0  02:00        3.85        14.6       0.389
  jd17                 JUNCTION     0.835    1.966     0  02:00        7.98        22.2       3.214
  jd18                 JUNCTION     0.680    0.983     0  02:00        6.36        9.21       0.548
  jd19                 JUNCTION     0.635    1.169     0  02:00        5.91        13.2       0.348
  jd20                 JUNCTION     0.515    0.744     0  02:00         4.9        10.1       0.552
  jd21                 JUNCTION     0.234    1.811     0  02:00        2.26        19.8       1.712
  jd22                 JUNCTION     0.414    0.903     0  02:00        3.99        9.01       0.897
  jd23                 JUNCTION     0.417    1.154     0  02:00        3.95        10.9       0.304
  jd24                 JUNCTION     0.691    0.691     0  02:00        6.51        6.51       0.225
  jd25                 JUNCTION     0.536    0.777     0  02:00         5.1        7.37       0.399
  jd26                 JUNCTION     0.779    1.273     0  02:00        7.42        12.4       0.361
  jd27                 JUNCTION     0.771    1.260     0  02:00        7.63        12.7       0.332
  jd28                 JUNCTION     1.005    1.418     0  02:00        10.4        14.6       0.918
  jd29                 JUNCTION     0.443    0.443     0  02:00        4.18        4.18       0.114
  jd30                 JUNCTION     0.432    1.235     0  02:00        4.33        11.9       0.203
  jd31                 JUNCTION     0.293    1.169     0  01:39         2.9        6.39       7.454
  jd32                 JUNCTION     0.616    2.575     0  02:00        5.89        26.6       0.944
  jd33                 JUNCTION     0.620    1.034     0  02:00        5.84        9.71       0.206
  jd34                 JUNCTION     0.780    0.780     0  02:00        7.25        7.25       0.171
  jd35                 JUNCTION     0.704    2.241     0  02:00        6.58          23       0.565
  jd36                 JUNCTION     1.076    1.758     0  02:00        11.1        18.2       0.418
  jd37                 JUNCTION     1.168    1.168     0  02:00        11.7        11.7       0.247
  jd38                 JUNCTION     1.101    1.787     0  02:00        10.8        17.8       0.544
  jd39                 JUNCTION     0.782    3.021     0  02:00        7.48        33.2       1.548
  jd40                 JUNCTION     1.280    3.164     0  02:00        12.7        30.5       0.514
  jd41                 JUNCTION     0.912    3.523     0  02:00        8.91        37.5       5.982
  jd42                 JUNCTION     1.096    1.221     0  02:00        11.6        12.8       0.411
  jd43                 JUNCTION     1.422    2.505     0  02:00        13.3        23.1       0.675
  jd44                 JUNCTION     1.800    3.993     0  02:00        17.6        43.9       0.479
  jd45                 JUNCTION     0.643    2.868     0  02:00        7.07        28.3       1.145
  jd46                 JUNCTION     0.300    0.300     0  02:00        3.23        3.23       0.995
  jd47                 JUNCTION     1.104    1.104     0  02:00        10.5        10.5       0.052
  jd48                 JUNCTION     0.324    0.324     0  02:00        2.99        2.99       0.229
  jd49                 JUNCTION     1.376    1.376     0  02:00        14.2        14.2       0.314
  jd50                 JUNCTION     1.503    3.578     0  02:00        14.8        47.3       0.912
  jd51                 JUNCTION     0.338    1.513     0  02:00        3.12        14.3      10.582
  jd52                 JUNCTION     0.634    2.632     0  02:00         6.3        24.3       0.507
  jd53                 JUNCTION     0.340    1.991     0  02:00        3.49        19.1       0.305
  jd54                 JUNCTION     0.203    1.007     0  02:00        1.89        9.43       0.414
  jd55                 JUNCTION     0.372    1.250     0  02:00        3.44        11.2       7.462
  jd56                 JUNCTION     0.229    0.670     0  02:00         2.1        6.12       0.322
  jd59                 JUNCTION     0.223    1.096     0  02:00        2.08        9.91       8.488
  jd60                 JUNCTION     0.396    0.847     0  02:00        3.72        7.96       1.634
  jd61                 JUNCTION     0.445    0.503     0  02:00        4.22        4.75       0.223
  jd62                 JUNCTION     0.188    0.188     0  02:00        1.72        1.72       0.088
  jd63                 JUNCTION     0.250    0.250     0  02:00        2.31        2.31       0.129
  jd64                 JUNCTION     0.207    0.553     0  01:49        1.94         4.8       8.403
  jd65                 JUNCTION     3.049    3.049     0  02:00        32.9        32.9       0.227
  jd66                 JUNCTION     0.470    1.379     0  02:00        4.44        12.9       2.534
  jd69                 JUNCTION     0.889    0.914     0  02:00        8.23        8.46       0.297
  jd79                 JUNCTION     0.822    1.502     0  02:00        7.82        13.9       1.259
  jd80                 JUNCTION     0.906    1.143     0  02:00        8.68        11.7       1.282
  jd81                 JUNCTION     0.678    0.678     0  02:00        6.58        6.58       0.071
  jd83                 JUNCTION     0.762    0.957     0  02:00        7.01        9.45       0.899
  jd84                 JUNCTION     0.970    0.970     0  02:00        8.92        8.92       0.252
  jd85                 JUNCTION     0.221    0.362     0  02:00           2        3.31       2.582
  jd87                 JUNCTION     0.178    0.423     0  02:00        1.64        3.96       1.881
  jd89                 JUNCTION     0.201    0.201     0  02:00         1.9         1.9       0.290
  jd90                 JUNCTION     0.209    0.209     0  02:00        1.94        1.94       0.191
  jd92                 JUNCTION     0.177    0.177     0  02:00        1.63        1.63       0.146
  jd93                 JUNCTION     0.352    0.778     0  02:00         3.5        7.56       0.416
  jd94                 JUNCTION     0.025    0.435     0  02:00       0.224        4.08       0.531
  jd95                 JUNCTION     0.047    0.417     0  02:00       0.424        3.87       0.464
  jd96                 JUNCTION     0.357    0.471     0  02:00        3.29        4.35       2.228
  jd97                 JUNCTION     0.372    0.372     0  02:00        3.45        3.45       0.118
  jd98                 JUNCTION     0.209    0.209     0  02:00        1.92        1.92       0.201
  jd99                 JUNCTION     0.102    0.302     0  02:00       0.936        3.21       1.777
  jd101                JUNCTION     0.276    0.533     0  02:00        2.53           5       0.084
  jd102                JUNCTION     0.261    0.261     0  02:00        2.49        2.49       0.314
  jd103                JUNCTION     0.186    0.186     0  02:00        1.73        1.73       0.071
  jd106                JUNCTION     0.149    0.821     0  02:00        1.35        7.73       5.292
  jd107                JUNCTION     0.213    0.690     0  02:00        1.95        6.42       0.409
  jd108                JUNCTION     0.234    0.234     0  02:00        2.16        2.17       3.095
  jd109                JUNCTION     0.378    0.378     0  02:00        3.54        3.54       0.087
  jd110                JUNCTION     0.302    0.447     0  02:00         2.8        4.15       3.732
  jd111                JUNCTION     0.247    0.247     0  02:00        2.28        2.28       0.144
  jd112                JUNCTION     0.280    0.796     0  02:00        2.62         7.4       0.157
  jd113                JUNCTION     0.198    0.198     0  02:00        1.83        1.83       0.028
  jd114                JUNCTION     0.230    2.836     0  02:00        2.13        27.6       1.133
  jd117                JUNCTION     0.207    0.929     0  01:32        1.96        6.56       2.356
  jd118                JUNCTION     0.197    0.197     0  02:00         1.8         1.8       0.023
  jd120                JUNCTION     0.240    0.240     0  02:00        2.24        2.24       0.136
  jd121                JUNCTION     0.291    0.291     0  02:00        2.79        2.79       0.176
  jd122                JUNCTION     0.694    2.648     0  02:00        6.56        31.1       1.814
  jd123                JUNCTION     0.721    2.486     0  02:00        6.77          33       2.115
  jd124                JUNCTION     0.987    2.060     0  02:00         9.7        26.5       0.219
  jd125                JUNCTION     0.917    2.592     0  02:00        9.39        31.8       0.183
  jd126                JUNCTION     1.310    1.845     0  02:00        13.7        19.2       0.525
  jd135                JUNCTION     0.379    0.379     0  02:00         3.5         3.5       0.124
  jd136                JUNCTION     0.320    0.519     0  02:00        2.97         4.8       0.426
  psk1                 OUTFALL      0.000    0.379     0  02:00           0         3.5       0.000
  psk2                 OUTFALL      0.000    0.906     0  02:01           0        8.77       0.000
  psk3                 OUTFALL      0.000    1.485     0  02:01           0        14.6       0.000
  psk4                 OUTFALL      0.000    0.000     0  00:00           0           0       0.000 ltr
  psk5                 OUTFALL      0.000    0.362     0  02:00           0        3.62       0.000
  psk6                 OUTFALL      0.000    0.310     0  02:00           0        2.98       0.000
  psk7                 OUTFALL      0.000    1.703     0  02:00           0        21.6       0.000
  psk8                 OUTFALL      0.000    0.000     0  00:00           0           0       0.000 ltr
  
  
  **********************
  Node Surcharge Summary
  **********************
  
  Surcharging occurs when water rises above the top of the highest conduit.
  ---------------------------------------------------------------------
                                               Max. Height   Min. Depth
                                   Hours       Above Crown    Below Rim
  Node                 Type      Surcharged         Meters       Meters
  ---------------------------------------------------------------------
  jd3                  JUNCTION        7.46          2.200        0.000
  jd4                  JUNCTION        3.22          2.200        0.000
  jd8                  JUNCTION        5.02          2.200        0.000
  jd9                  JUNCTION        3.63          2.200        0.000
  jd10                 JUNCTION        7.54          2.400        0.000
  jd12                 JUNCTION        7.57          2.400        0.000
  jd17                 JUNCTION        5.72          2.200        0.000
  jd19                 JUNCTION        1.48          2.200        0.000
  jd21                 JUNCTION        7.47          2.200        0.000
  jd22                 JUNCTION        7.42          2.400        0.000
  jd28                 JUNCTION        7.60          2.400        0.000
  jd31                 JUNCTION        7.34          2.200        0.000
  jd32                 JUNCTION        7.55          2.200        0.000
  jd35                 JUNCTION        7.67          2.400        0.000
  jd39                 JUNCTION        7.47          2.000        0.000
  jd40                 JUNCTION        0.40          2.200        0.000
  jd41                 JUNCTION        7.24          1.000        0.000
  jd43                 JUNCTION        0.32          2.200        0.000
  jd44                 JUNCTION        0.36          2.000        0.000
  jd45                 JUNCTION        7.49          2.000        0.000
  jd50                 JUNCTION        7.61          2.200        0.000
  jd51                 JUNCTION        7.22          1.350        0.000
  jd55                 JUNCTION        1.20          1.500        0.000
  jd59                 JUNCTION        7.17          1.500        0.000
  jd60                 JUNCTION        7.58          2.400        0.000
  jd64                 JUNCTION        7.19          1.800        0.000
  jd65                 JUNCTION        3.83          2.400        0.000
  jd66                 JUNCTION        7.53          2.200        0.000
  jd79                 JUNCTION        7.59          2.400        0.000
  jd80                 JUNCTION        6.76          2.400        0.000
  jd83                 JUNCTION        7.71          2.400        0.000
  jd85                 JUNCTION        7.57          2.400        0.000
  jd87                 JUNCTION        7.56          2.400        0.000
  jd96                 JUNCTION        7.63          2.200        0.000
  jd99                 JUNCTION        7.52          2.400        0.000
  jd106                JUNCTION        7.36          2.000        0.000
  jd108                JUNCTION        7.58          0.889        1.111
  jd110                JUNCTION        7.57          2.000        0.000
  jd114                JUNCTION        7.51          2.000        0.000
  jd117                JUNCTION        7.46          2.200        0.000
  jd122                JUNCTION        7.49          2.200        0.000
  jd123                JUNCTION        7.45          2.200        0.000
  jd124                JUNCTION        7.74          2.400        0.000
  jd125                JUNCTION        2.52          2.200        0.000
  jd126                JUNCTION        7.69          2.400        0.000
  
  
  *********************
  Node Flooding Summary
  *********************
  
  Flooding refers to all water that overflows a node, whether it ponds or not.
  --------------------------------------------------------------------------
                                                             Total   Maximum
                                 Maximum   Time of Max       Flood    Ponded
                        Hours       Rate    Occurrence      Volume     Depth
  Node                 Flooded       CMS   days hr:min    10^6 ltr    Meters
  --------------------------------------------------------------------------
  jd3                     7.46     1.795      0  02:00      20.916     0.000
  jd4                     1.28     0.319      0  02:00       0.454     0.000
  jd8                     0.90     0.274      0  01:33       0.163     0.000
  jd9                     0.45     0.366      0  01:38       0.352     0.000
  jd10                    7.54     0.499      0  02:00       4.573     0.000
  jd12                    7.57     0.921      0  02:00       8.654     0.000
  jd17                    3.45     1.250      0  01:37       4.708     0.000
  jd19                    0.25     0.321      0  01:42       0.054     0.000
  jd21                    7.37     1.811      0  02:00      19.197     0.000
  jd22                    0.23     0.237      0  01:34       0.036     0.000
  jd28                    7.60     1.418      0  02:00      14.457     0.000
  jd31                    0.01     0.993      0  01:39       0.010     0.000
  jd32                    7.55     2.575      0  02:00      26.315     0.000
  jd35                    7.67     2.240      0  02:00      22.852     0.000
  jd39                    7.47     3.020      0  02:00      32.714     0.000
  jd40                    0.23     0.867      0  01:54       0.355     0.000
  jd41                    7.24     3.523      0  02:00      35.384     0.000
  jd43                    0.27     0.674      0  02:00       0.457     0.000
  jd44                    0.12     0.869      0  01:54       0.043     0.000
  jd45                    7.49     2.868      0  02:00      27.996     0.000
  jd50                    7.61     3.578      0  02:00      46.922     0.000
  jd51                    7.22     1.513      0  02:00      12.951     0.000
  jd55                    0.01     0.744      0  01:43       0.012     0.000
  jd59                    7.17     1.096      0  02:00       9.120     0.000
  jd60                    7.58     0.847      0  02:00       7.831     0.000
  jd64                    0.02     0.528      0  01:49       0.020     0.000
  jd65                    3.75     1.955      0  02:00      10.604     0.000
  jd66                    7.53     1.379      0  02:00      12.560     0.000
  jd79                    4.93     1.273      0  02:00       8.609     0.000
  jd80                    4.01     0.985      0  02:00       6.865     0.000
  jd83                    7.71     0.957      0  02:00       9.366     0.000
  jd85                    7.57     0.362      0  02:00       3.222     0.000
  jd87                    7.56     0.423      0  02:00       3.892     0.000
  jd96                    7.63     0.471      0  02:00       4.255     0.000
  jd99                    7.52     0.302      0  02:00       3.159     0.000
  jd106                   7.36     0.820      0  02:00       7.345     0.000
  jd110                   7.57     0.447      0  02:00       4.002     0.000
  jd114                   7.49     2.836      0  02:00      27.191     0.000
  jd117                   0.01     0.852      0  01:32       0.016     0.000
  jd122                   7.48     2.648      0  02:00      30.352     0.000
  jd123                   7.45     2.305      0  01:33      23.921     0.000
  jd124                   7.74     2.060      0  02:00      26.436     0.000
  jd125                   0.19     0.650      0  01:44       0.103     0.000
  jd126                   7.69     1.845      0  02:00      19.052     0.000
  
  
  ***********************
  Outfall Loading Summary
  ***********************
  
  -----------------------------------------------------------
                         Flow       Avg       Max       Total
                         Freq      Flow      Flow      Volume
  Outfall Node           Pcnt       CMS       CMS    10^6 ltr
  -----------------------------------------------------------
  psk1                  96.81     0.143     0.379       3.498
  psk2                  96.78     0.359     0.906       8.771
  psk3                  96.81     0.596     1.485      14.554
  psk4                   0.00     0.000     0.000       0.000
  psk5                  96.81     0.148     0.362       3.617
  psk6                  96.78     0.121     0.310       2.976
  psk7                  96.78     0.869     1.703      21.623
  psk8                   0.00     0.000     0.000       0.000
  -----------------------------------------------------------
  System                72.60     2.236     0.000      55.039
  
  
  ********************
  Link Flow Summary
  ********************
  
  -----------------------------------------------------------------------------
                                 Maximum  Time of Max   Maximum    Max/    Max/
                                  |Flow|   Occurrence   |Veloc|    Full    Full
  Link                 Type          CMS  days hr:min     m/sec    Flow   Depth
  -----------------------------------------------------------------------------
  GQ1                  CONDUIT     0.204     0  02:02      1.80    0.54    0.43
  GQ2                  CONDUIT     0.556     0  02:02      2.12    0.26    0.37
  GQ3                  CONDUIT     0.379     0  02:00      5.34    0.01    0.08
  GQ4                  CONDUIT     0.510     0  03:44      1.80    1.00    1.00
  GQ5                  CONDUIT     0.665     0  02:02      1.59    0.55    0.78
  GQ6                  CONDUIT     0.195     0  02:00      1.16    0.09    0.38
  GQ7                  CONDUIT     1.675     0  02:01      3.64    1.00    1.00
  GQ8                  CONDUIT     0.363     0  02:00      0.96    0.35    0.70
  GQ9                  CONDUIT     0.987     0  02:00      2.61    0.35    0.70
  GQ10                 CONDUIT     1.134     0  05:27      4.10    1.04    1.00
  GQ11                 CONDUIT     0.125     0  02:00      1.80    0.13    0.33
  GQ12                 CONDUIT     0.136     0  02:00      0.73    0.15    0.63
  GQ13                 CONDUIT     0.094     0  02:00      0.50    0.04    0.57
  GQ14                 CONDUIT     0.046     0  02:00      0.87    0.06    0.16
  GQ15                 CONDUIT     0.121     0  02:00      3.91    0.49    0.45
  GQ16                 CONDUIT     0.821     0  02:02      3.56    0.40    0.34
  GQ17                 CONDUIT     0.222     0  02:00      1.41    0.07    0.37
  GQ18                 CONDUIT     1.044     0  02:00      2.50    4.71    0.78
  GQ19                 CONDUIT     0.297     0  02:00      1.73    0.03    0.29
  GQ20                 CONDUIT     0.065     0  02:00      0.43    0.03    0.27
  GQ21                 CONDUIT     0.239     0  02:00      1.33    0.07    0.30
  GQ22                 CONDUIT     0.242     0  02:00      1.60    0.07    0.25
  GQ23                 CONDUIT     0.424     0  02:00      2.04    0.21    0.31
  GQ24                 CONDUIT     0.649     0  02:00      1.74    0.32    0.69
  GQ25                 CONDUIT     0.414     0  02:00      3.30    0.46    0.46
  GQ26                 CONDUIT     0.316     0  02:00      2.43    0.37    0.47
  GQ27                 CONDUIT     0.492     0  02:01      2.13    0.49    0.76
  GQ28                 CONDUIT     0.202     0  02:00      0.58    0.22    0.66
  GQ29                 CONDUIT     0.883     0  01:39      1.95    0.41    1.00
  GQ30                 CONDUIT     0.824     0  01:59      2.91    1.00    1.00
  GQ31                 CONDUIT     0.362     0  02:00      1.60    0.48    0.75
  GQ32                 CONDUIT     0.498     0  02:02      2.84    0.80    0.60
  GQ33                 CONDUIT     1.191     0  02:02      4.57    0.83    0.87
  GQ34                 CONDUIT     0.225     0  02:00      1.35    0.35    0.57
  GQ35                 CONDUIT     0.460     0  02:00      2.11    0.85    0.72
  GQ36                 CONDUIT     0.688     0  02:00      2.93    0.85    0.77
  GQ37                 CONDUIT     0.300     0  02:01      1.36    0.43    0.73
  GQ38                 CONDUIT     0.117     0  02:01      0.61    0.17    0.64
  GQ39                 CONDUIT     0.515     0  02:00      2.13    0.66    0.80
  GQ40                 CONDUIT     0.345     0  02:01      2.30    0.43    0.53
  GQ41                 CONDUIT     0.888     0  02:02      1.40    0.41    0.75
  GQ42                 CONDUIT     1.359     0  02:08      2.70    1.00    1.00
  GQ43                 CONDUIT     1.902     0  02:01      4.31    0.85    0.85
  GQ44                 CONDUIT     0.946     0  02:03      1.88    1.00    1.00
  GQ45                 CONDUIT     0.534     0  02:00      1.80    0.22    0.66
  GQ46                 CONDUIT     1.068     0  02:02      2.12    1.00    1.00
  GQ47                 CONDUIT     0.105     0  02:00      0.58    0.10    0.61
  GQ48                 CONDUIT     0.104     0  02:00      0.58    0.10    0.61
  GQ49                 CONDUIT     0.393     0  02:00      2.10    0.15    0.63
  GQ50                 CONDUIT     0.113     0  02:00      1.00    0.15    0.42
  GQ51                 CONDUIT     0.424     0  02:01      2.47    0.65    0.58
  GQ52                 CONDUIT     0.269     0  02:03      0.85    0.36    0.71
  GQ53                 CONDUIT     2.225     0  02:01      2.83    1.00    1.00
  GQ54                 CONDUIT     0.254     0  02:00      1.29    0.22    0.66
  GQ55                 CONDUIT     0.198     0  02:00      1.07    0.13    0.62
  GQ56                 CONDUIT     1.967     0  01:51      4.22    1.07    1.00
  GQ57                 CONDUIT     0.314     0  02:00      0.94    0.21    0.65
  GQ58                 CONDUIT     0.654     0  02:00      1.88    0.21    0.65
  GQ59                 CONDUIT     1.203     0  02:08      2.39    1.00    1.00
  GQ60                 CONDUIT     1.251     0  02:00      1.02    0.30    0.69
  GQ61                 CONDUIT     0.162     0  02:00      0.53    0.02    0.55
  GQ62                 CONDUIT     0.333     0  02:00      0.65    0.03    0.56
  GQ63                 CONDUIT     0.759     0  02:00      1.33    0.02    0.55
  GQ64                 CONDUIT     0.058     0  02:00      1.27    0.04    0.23
  GQ65                 CONDUIT     0.025     0  02:00      0.31    0.04    0.33
  GQ66                 CONDUIT     0.098     0  02:00      0.72    0.03    0.56
  GQ67                 CONDUIT     0.519     0  01:48      0.50    0.36    1.00
  GQ68                 CONDUIT     0.464     0  02:00      0.89    0.15    0.63
  GQ69                 CONDUIT     0.910     0  02:00      2.44    0.32    0.70
  GQ70                 CONDUIT     0.310     0  02:00      6.97    0.04    0.14
  GQ71                 CONDUIT     0.362     0  02:00      5.03    0.09    0.20
  GQ72                 CONDUIT     1.703     0  02:00      5.05    0.41    0.44
  GQ73                 CONDUIT     0.906     0  02:01     10.71    0.06    0.16
  GQ74                 CONDUIT     0.196     0  02:00      1.23    0.04    0.26
  GQ75                 CONDUIT     0.204     0  02:01      0.43    0.06    0.58
  GQ76                 CONDUIT     1.485     0  02:01      5.24    0.32    0.39
  GQ77                 CONDUIT     0.000     0  00:00      0.00    0.00    0.18
  GQ78                 CONDUIT     0.687     0  02:01      2.69    0.75    0.85
  GQ79                 CONDUIT     0.229     0  02:00      1.08    0.49    0.71
  GQ80                 CONDUIT     0.239     0  02:02      0.94    0.39    0.85
  GQ81                 CONDUIT     0.605     0  01:34      2.17    3.83    1.00
  GQ82                 CONDUIT     0.325     0  02:00      1.79    0.22    0.66
  GQ83                 CONDUIT     0.350     0  02:00      2.58    0.22    0.48
  GQ84                 CONDUIT     0.771     0  02:00      3.25    0.61    0.78
  GQ85                 CONDUIT     0.195     0  02:00      0.82    0.34    0.78
  GQ86                 CONDUIT     0.105     0  02:00      0.88    0.04    0.57
  GQ87                 CONDUIT     0.036     0  02:00      0.21    0.05    0.58
  GQ88                 CONDUIT     0.245     0  02:00      1.24    0.22    0.66
  GQ89                 CONDUIT     0.198     0  02:00      0.98    0.26    0.67
  GQ90                 CONDUIT     0.208     0  02:00      1.14    0.21    0.66
  GQ91                 CONDUIT     0.176     0  02:00      0.90    0.22    0.66
  GQ92                 CONDUIT     0.412     0  02:01      1.67    0.59    0.49
  GQ93                 CONDUIT     0.431     0  02:02      1.41    0.37    0.58
  GQ94                 CONDUIT     0.759     0  02:02      2.22    0.90    0.73
  GQ95                 CONDUIT     0.114     0  02:00      0.40    0.03    0.56
  GQ96                 CONDUIT     0.371     0  02:00      1.25    0.63    0.57
  GQ97                 CONDUIT     0.208     0  02:00      1.79    0.37    0.43
  GQ98                 CONDUIT     0.200     0  02:00      0.92    0.28    0.72
  GQ99                 CONDUIT     0.367     0  02:00      0.88    0.02    0.55
  GQ100                CONDUIT     0.258     0  02:00      2.61    0.44    0.38
  GQ101                CONDUIT     0.186     0  02:00      1.23    0.14    0.63
  GQ102                CONDUIT     0.711     0  02:00      2.03    0.22    0.66
  GQ103                CONDUIT     0.342     0  02:00      1.49    0.53    0.76
  GQ104                CONDUIT     0.592     0  02:01      2.68    0.43    0.73
  GQ105                CONDUIT     1.037     0  01:32      2.07    3.29    1.00
  GQ106                CONDUIT     0.205     0  02:00      1.05    0.20    0.65
  GQ107                CONDUIT     0.735     0  02:00      3.04    0.66    0.80
  GQ108                CONDUIT     0.829     0  03:51      1.65    1.00    1.00
  GQ109                CONDUIT     0.152     0  02:00      1.27    0.21    0.45
  GQ110                CONDUIT     0.244     0  02:00      0.95    0.04    0.56
  GQ111                CONDUIT     0.226     0  02:00      1.15    0.21    0.65
  GQ112                CONDUIT     0.683     0  02:00      2.69    0.12    0.28
  GQ113                CONDUIT     0.376     0  02:00      3.36    0.29    0.42
  GQ114                CONDUIT     0.234     0  02:00      0.45    0.10    0.63
  GQ115                CONDUIT     0.101     0  02:00      0.94    0.01    0.16
  GQ116                CONDUIT     0.145     0  02:00      0.49    0.02    0.55
  GQ117                CONDUIT     0.517     0  02:00      4.02    0.32    0.30
  GQ118                CONDUIT     0.198     0  02:00      1.78    0.07    0.31
  GQ119                CONDUIT     1.950     0  02:03      4.13    0.85    0.89
  GQ120                CONDUIT     0.000     0  00:00      0.00    0.00    0.50
  GQ121                CONDUIT     0.697     0  02:00      1.39    0.49    1.00
  GQ122                CONDUIT     0.293     0  02:00      1.92    0.05    0.58
  GQ123                CONDUIT     0.197     0  02:00      1.60    0.09    0.60
  GQ124                CONDUIT     0.123     0  02:00      0.97    0.05    0.32
  GQ125                CONDUIT     0.238     0  02:00      1.17    0.27    0.68
  GQ126                CONDUIT     0.289     0  02:00      1.41    0.28    0.68
  GQ127                CONDUIT     0.665     0  02:01      1.67    0.85    0.74
  GQ128                CONDUIT     0.996     0  02:01      2.69    0.22    0.42
  GQ129                CONDUIT     1.313     0  02:04      2.61    1.00    1.00
  GQ130                CONDUIT     1.073     0  02:04      3.79    1.00    1.00
  GQ131                CONDUIT     0.539     0  02:01      2.24    0.63    0.79
  
  
  ***************************
  Flow Classification Summary
  ***************************
  
  -------------------------------------------------------------------------------------
                      Adjusted    ---------- Fraction of Time in Flow Class ---------- 
                       /Actual         Up    Down  Sub   Sup   Up    Down  Norm  Inlet 
  Conduit               Length    Dry  Dry   Dry   Crit  Crit  Crit  Crit  Ltd   Ctrl  
  -------------------------------------------------------------------------------------
  GQ1                     1.00   0.03  0.00  0.00  0.01  0.95  0.00  0.00  0.01  0.00
  GQ2                     1.00   0.03  0.00  0.00  0.03  0.94  0.00  0.00  0.89  0.00
  GQ3                     1.00   0.03  0.00  0.00  0.00  0.97  0.00  0.00  0.13  0.00
  GQ4                     1.00   0.03  0.00  0.00  0.96  0.01  0.00  0.00  0.40  0.00
  GQ5                     1.00   0.03  0.00  0.00  0.97  0.00  0.00  0.00  0.86  0.00
  GQ6                     1.00   0.03  0.00  0.00  0.97  0.00  0.00  0.00  0.89  0.00
  GQ7                     1.00   0.03  0.00  0.00  0.15  0.82  0.00  0.00  0.24  0.00
  GQ8                     1.00   0.03  0.00  0.00  0.97  0.00  0.00  0.00  0.87  0.00
  GQ9                     1.00   0.03  0.00  0.00  0.90  0.06  0.00  0.00  0.89  0.00
  GQ10                    1.00   0.03  0.00  0.00  0.76  0.21  0.00  0.00  0.44  0.00
  GQ11                    1.00   0.03  0.00  0.00  0.29  0.68  0.00  0.00  0.88  0.00
  GQ12                    1.00   0.03  0.00  0.00  0.96  0.01  0.00  0.00  0.89  0.00
  GQ13                    1.00   0.03  0.00  0.00  0.97  0.00  0.00  0.00  0.89  0.00
  GQ14                    1.00   0.03  0.00  0.00  0.97  0.00  0.00  0.00  0.00  0.00
  GQ15                    1.00   0.03  0.00  0.00  0.00  0.97  0.00  0.00  0.01  0.00
  GQ16                    1.00   0.03  0.00  0.00  0.00  0.97  0.00  0.00  0.00  0.00
  GQ17                    1.00   0.03  0.00  0.00  0.92  0.05  0.00  0.00  0.89  0.00
  GQ18                    1.00   0.03  0.00  0.00  0.79  0.18  0.00  0.00  0.03  0.00
  GQ19                    1.00   0.03  0.00  0.00  0.84  0.13  0.00  0.00  0.89  0.00
  GQ20                    1.00   0.03  0.00  0.00  0.97  0.00  0.00  0.00  0.89  0.00
  GQ21                    1.00   0.03  0.00  0.00  0.31  0.65  0.00  0.00  0.89  0.00
  GQ22                    1.00   0.03  0.00  0.00  0.00  0.97  0.00  0.00  0.89  0.00
  GQ23                    1.00   0.03  0.00  0.00  0.00  0.96  0.00  0.00  0.12  0.00
  GQ24                    1.00   0.03  0.00  0.00  0.97  0.00  0.00  0.00  0.89  0.00
  GQ25                    1.00   0.03  0.00  0.00  0.00  0.97  0.00  0.00  0.01  0.00
  GQ26                    1.00   0.03  0.00  0.00  0.00  0.97  0.00  0.00  0.85  0.00
  GQ27                    1.00   0.03  0.00  0.00  0.91  0.06  0.00  0.00  0.86  0.00
  GQ28                    1.00   0.03  0.00  0.00  0.97  0.00  0.00  0.00  0.88  0.00
  GQ29                    1.00   0.03  0.00  0.00  0.97  0.00  0.00  0.00  0.06  0.00
  GQ30                    1.00   0.03  0.00  0.00  0.95  0.02  0.00  0.00  0.04  0.00
  GQ31                    1.00   0.03  0.00  0.00  0.97  0.00  0.00  0.00  0.89  0.00
  GQ32                    1.00   0.03  0.00  0.00  0.00  0.96  0.00  0.00  0.01  0.00
  GQ33                    1.00   0.03  0.00  0.00  0.38  0.59  0.00  0.00  0.84  0.00
  GQ34                    1.00   0.03  0.00  0.00  0.94  0.03  0.00  0.00  0.89  0.00
  GQ35                    1.00   0.03  0.00  0.00  0.00  0.97  0.00  0.00  0.74  0.00
  GQ36                    1.00   0.03  0.00  0.00  0.00  0.97  0.00  0.00  0.84  0.00
  GQ37                    1.00   0.03  0.00  0.00  0.97  0.00  0.00  0.00  0.89  0.00
  GQ38                    1.00   0.03  0.00  0.00  0.97  0.00  0.00  0.00  0.89  0.00
  GQ39                    1.00   0.03  0.00  0.00  0.95  0.02  0.00  0.00  0.89  0.00
  GQ40                    1.00   0.03  0.00  0.00  0.01  0.96  0.00  0.00  0.89  0.00
  GQ41                    1.00   0.03  0.00  0.00  0.97  0.00  0.00  0.00  0.84  0.00
  GQ42                    1.00   0.03  0.00  0.00  0.97  0.00  0.00  0.00  0.58  0.00
  GQ43                    1.00   0.03  0.00  0.00  0.00  0.97  0.00  0.00  0.88  0.00
  GQ44                    1.00   0.03  0.00  0.00  0.97  0.00  0.00  0.00  0.39  0.00
  GQ45                    1.00   0.03  0.00  0.00  0.45  0.52  0.00  0.00  0.89  0.00
  GQ46                    1.00   0.03  0.00  0.00  0.62  0.35  0.00  0.00  0.50  0.00
  GQ47                    1.00   0.03  0.00  0.00  0.97  0.00  0.00  0.00  0.89  0.00
  GQ48                    1.00   0.03  0.00  0.00  0.97  0.00  0.00  0.00  0.89  0.00
  GQ49                    1.00   0.03  0.00  0.00  0.90  0.07  0.00  0.00  0.89  0.00
  GQ50                    1.00   0.03  0.00  0.00  0.97  0.00  0.00  0.00  0.89  0.00
  GQ51                    1.00   0.03  0.00  0.00  0.00  0.97  0.00  0.00  0.75  0.00
  GQ52                    1.00   0.03  0.00  0.00  0.97  0.00  0.00  0.00  0.86  0.00
  GQ53                    1.00   0.03  0.00  0.00  0.97  0.00  0.00  0.00  0.67  0.00
  GQ54                    1.00   0.03  0.00  0.00  0.97  0.00  0.00  0.00  0.89  0.00
  GQ55                    1.00   0.03  0.00  0.00  0.96  0.01  0.00  0.00  0.89  0.00
  GQ56                    1.00   0.03  0.00  0.00  0.07  0.90  0.00  0.00  0.76  0.00
  GQ57                    1.00   0.03  0.00  0.00  0.97  0.00  0.00  0.00  0.89  0.00
  GQ58                    1.00   0.03  0.00  0.00  0.95  0.01  0.00  0.00  0.89  0.00
  GQ59                    1.00   0.03  0.00  0.00  0.97  0.00  0.00  0.00  0.67  0.00
  GQ60                    1.00   0.03  0.00  0.00  0.97  0.00  0.00  0.00  0.07  0.00
  GQ61                    1.00   0.03  0.00  0.00  0.97  0.00  0.00  0.00  0.89  0.00
  GQ62                    1.00   0.03  0.00  0.00  0.96  0.01  0.00  0.00  0.89  0.00
  GQ63                    1.00   0.03  0.00  0.00  0.95  0.02  0.00  0.00  0.89  0.00
  GQ64                    1.00   0.03  0.00  0.00  0.16  0.81  0.00  0.00  0.89  0.00
  GQ65                    1.00   0.03  0.00  0.00  0.97  0.00  0.00  0.00  0.89  0.00
  GQ66                    1.00   0.03  0.00  0.00  0.96  0.01  0.00  0.00  0.89  0.00
  GQ67                    1.00   0.03  0.00  0.00  0.97  0.00  0.00  0.00  0.03  0.00
  GQ68                    1.00   0.03  0.00  0.00  0.97  0.00  0.00  0.00  0.89  0.00
  GQ69                    1.00   0.03  0.00  0.00  0.89  0.08  0.00  0.00  0.89  0.00
  GQ70                    1.00   0.03  0.00  0.00  0.00  0.97  0.00  0.00  0.00  0.00
  GQ71                    1.00   0.03  0.00  0.00  0.00  0.97  0.00  0.00  0.04  0.00
  GQ72                    1.00   0.03  0.00  0.00  0.00  0.97  0.00  0.00  0.36  0.00
  GQ73                    1.00   0.03  0.00  0.00  0.00  0.97  0.00  0.00  0.00  0.00
  GQ74                    1.00   0.03  0.00  0.00  0.90  0.07  0.00  0.00  0.89  0.00
  GQ75                    1.00   0.03  0.00  0.00  0.97  0.00  0.00  0.00  0.89  0.00
  GQ76                    1.00   0.03  0.00  0.00  0.00  0.97  0.00  0.00  0.26  0.00
  GQ77                    1.00   0.03  0.97  0.00  0.00  0.00  0.00  0.00  0.00  0.00
  GQ78                    1.00   0.03  0.00  0.00  0.88  0.09  0.00  0.00  0.84  0.00
  GQ79                    1.00   0.03  0.00  0.00  0.97  0.00  0.00  0.00  0.04  0.00
  GQ80                    1.00   0.03  0.00  0.00  0.97  0.00  0.00  0.00  0.47  0.00
  GQ81                    1.00   0.03  0.00  0.00  0.97  0.00  0.00  0.00  0.00  0.00
  GQ82                    1.00   0.03  0.00  0.00  0.94  0.03  0.00  0.00  0.88  0.00
  GQ83                    1.00   0.03  0.00  0.00  0.00  0.97  0.00  0.00  0.89  0.00
  GQ84                    1.00   0.03  0.00  0.00  0.03  0.94  0.00  0.00  0.89  0.00
  GQ85                    1.00   0.03  0.00  0.00  0.97  0.00  0.00  0.00  0.55  0.00
  GQ86                    1.00   0.03  0.00  0.00  0.96  0.00  0.00  0.00  0.89  0.00
  GQ87                    1.00   0.03  0.00  0.00  0.97  0.00  0.00  0.00  0.89  0.00
  GQ88                    1.00   0.03  0.00  0.00  0.97  0.00  0.00  0.00  0.89  0.00
  GQ89                    1.00   0.03  0.00  0.00  0.96  0.01  0.00  0.00  0.89  0.00
  GQ90                    1.00   0.03  0.00  0.00  0.95  0.02  0.00  0.00  0.89  0.00
  GQ91                    1.00   0.03  0.00  0.00  0.96  0.01  0.00  0.00  0.89  0.00
  GQ92                    1.00   0.03  0.00  0.00  0.86  0.11  0.00  0.00  0.00  0.00
  GQ93                    1.00   0.03  0.00  0.00  0.97  0.00  0.00  0.00  0.89  0.00
  GQ94                    1.00   0.03  0.00  0.00  0.29  0.68  0.00  0.00  0.00  0.00
  GQ95                    1.00   0.03  0.00  0.00  0.97  0.00  0.00  0.00  0.89  0.00
  GQ96                    1.00   0.03  0.00  0.00  0.96  0.00  0.00  0.00  0.61  0.00
  GQ97                    1.00   0.03  0.00  0.00  0.00  0.97  0.00  0.00  0.30  0.00
  GQ98                    1.00   0.03  0.00  0.00  0.97  0.00  0.00  0.00  0.82  0.00
  GQ99                    1.00   0.03  0.00  0.00  0.96  0.01  0.00  0.00  0.89  0.00
  GQ100                   1.00   0.03  0.00  0.00  0.00  0.97  0.00  0.00  0.01  0.00
  GQ101                   1.00   0.03  0.00  0.00  0.96  0.01  0.00  0.00  0.89  0.00
  GQ102                   1.00   0.03  0.00  0.00  0.95  0.02  0.00  0.00  0.89  0.00
  GQ103                   1.00   0.03  0.00  0.00  0.97  0.00  0.00  0.00  0.89  0.00
  GQ104                   1.00   0.03  0.00  0.00  0.77  0.19  0.00  0.00  0.89  0.00
  GQ105                   1.00   0.03  0.00  0.00  0.97  0.00  0.00  0.00  0.04  0.00
  GQ106                   1.00   0.03  0.00  0.00  0.96  0.01  0.00  0.00  0.89  0.00
  GQ107                   1.00   0.03  0.00  0.00  0.69  0.28  0.00  0.00  0.89  0.00
  GQ108                   1.00   0.03  0.00  0.00  0.97  0.00  0.00  0.00  0.06  0.00
  GQ109                   1.00   0.03  0.00  0.00  0.91  0.06  0.00  0.00  0.88  0.00
  GQ110                   1.00   0.03  0.00  0.00  0.96  0.01  0.00  0.00  0.89  0.00
  GQ111                   1.00   0.03  0.00  0.00  0.96  0.01  0.00  0.00  0.89  0.00
  GQ112                   1.00   0.03  0.00  0.00  0.00  0.97  0.00  0.00  0.87  0.00
  GQ113                   1.00   0.03  0.00  0.00  0.00  0.97  0.00  0.00  0.87  0.00
  GQ114                   1.00   0.03  0.00  0.00  0.97  0.00  0.00  0.00  0.05  0.00
  GQ115                   1.00   0.03  0.00  0.00  0.95  0.02  0.00  0.00  0.89  0.00
  GQ116                   1.00   0.03  0.00  0.00  0.97  0.00  0.00  0.00  0.89  0.00
  GQ117                   1.00   0.03  0.00  0.00  0.00  0.97  0.00  0.00  0.01  0.00
  GQ118                   1.00   0.03  0.00  0.00  0.29  0.68  0.00  0.00  0.89  0.00
  GQ119                   1.00   0.03  0.00  0.00  0.52  0.44  0.00  0.00  0.83  0.00
  GQ120                   1.00   0.03  0.03  0.00  0.93  0.00  0.00  0.00  0.00  0.00
  GQ121                   1.00   0.03  0.00  0.00  0.96  0.01  0.00  0.00  0.04  0.00
  GQ122                   1.00   0.03  0.00  0.00  0.93  0.03  0.00  0.00  0.89  0.00
  GQ123                   1.00   0.03  0.00  0.00  0.93  0.03  0.00  0.00  0.89  0.00
  GQ124                   1.00   0.03  0.00  0.00  0.96  0.01  0.00  0.00  0.89  0.00
  GQ125                   1.00   0.03  0.00  0.00  0.96  0.01  0.00  0.00  0.88  0.00
  GQ126                   1.00   0.03  0.00  0.00  0.96  0.01  0.00  0.00  0.89  0.00
  GQ127                   1.00   0.03  0.00  0.00  0.97  0.00  0.00  0.00  0.76  0.00
  GQ128                   1.00   0.03  0.00  0.00  0.00  0.97  0.00  0.00  0.84  0.00
  GQ129                   1.00   0.03  0.00  0.00  0.97  0.00  0.00  0.00  0.44  0.00
  GQ130                   1.00   0.03  0.00  0.00  0.81  0.16  0.00  0.00  0.44  0.00
  GQ131                   1.00   0.03  0.00  0.00  0.94  0.03  0.00  0.00  0.87  0.00
  
  
  *************************
  Conduit Surcharge Summary
  *************************
  
  ----------------------------------------------------------------------------
                                                           Hours        Hours 
                         --------- Hours Full --------   Above Full   Capacity
  Conduit                Both Ends  Upstream  Dnstream   Normal Flow   Limited
  ----------------------------------------------------------------------------
  GQ4                         3.70      3.70      7.50      0.01         0.01
  GQ5                         0.01      0.01      7.46      0.01         0.01
  GQ7                         0.54      0.54      2.52      0.01         0.01
  GQ8                         0.01      0.01      0.54      0.01         0.01
  GQ9                         0.01      0.01      7.61      0.01         0.01
  GQ10                        3.83      3.83      7.65      0.07         0.01
  GQ12                        0.01      0.01      7.42      0.01         0.01
  GQ13                        0.01      0.01      3.22      0.01         0.01
  GQ18                        0.01      0.01      5.02      6.39         0.01
  GQ24                        0.01      0.01      7.55      0.01         0.01
  GQ27                        0.01      0.01      7.42      0.01         0.01
  GQ28                        0.01      0.01      7.47      0.01         0.01
  GQ29                        7.34      7.34      7.47      0.01         0.01
  GQ30                        7.42      7.42      7.51      0.01         0.01
  GQ31                        0.01      0.01      7.67      0.01         0.01
  GQ33                        0.01      0.01      7.67      0.01         0.01
  GQ37                        0.01      0.01      7.60      0.01         0.01
  GQ38                        0.01      0.01      7.60      0.01         0.01
  GQ39                        0.01      0.01      7.42      0.01         0.01
  GQ41                        0.01      0.01      7.47      0.01         0.01
  GQ42                        0.40      0.40      7.49      0.01         0.01
  GQ43                        0.01      0.01      0.40      0.01         0.01
  GQ44                        3.63      3.63      5.02      0.01         0.01
  GQ45                        0.01      0.01      1.48      0.01         0.01
  GQ46                        1.48      1.48      3.63      0.01         0.01
  GQ47                        0.01      0.01      7.54      0.01         0.01
  GQ48                        0.01      0.01      7.57      0.01         0.01
  GQ49                        0.01      0.01      7.57      0.01         0.01
  GQ52                        0.01      0.01      7.34      0.01         0.01
  GQ53                        0.36      0.36      7.49      0.01         0.01
  GQ54                        0.01      0.01      7.58      0.01         0.01
  GQ55                        0.01      0.01      7.58      0.01         0.01
  GQ56                        0.31      0.32      0.54      0.35         0.15
  GQ57                        0.01      0.01      0.32      0.01         0.01
  GQ58                        0.01      0.01      7.43      0.01         0.01
  GQ59                        0.40      0.40      7.43      0.01         0.01
  GQ60                        0.01      0.01      1.20      0.01         0.01
  GQ61                        0.01      0.01      7.17      0.01         0.01
  GQ62                        0.01      0.01      7.22      0.01         0.01
  GQ63                        0.01      0.01      7.24      0.01         0.01
  GQ66                        0.01      0.01      7.27      0.01         0.01
  GQ67                        7.19      7.19      7.23      0.01         0.01
  GQ68                        0.01      0.01      7.36      0.01         0.01
  GQ69                        0.01      0.01      7.53      0.01         0.01
  GQ75                        0.01      0.01      7.36      0.01         0.01
  GQ78                        0.01      0.01      7.59      0.01         0.01
  GQ79                        0.01      0.01      7.59      0.01         0.01
  GQ80                        0.01      0.01      6.76      0.01         0.01
  GQ81                        6.65      6.76      7.42      5.30         1.69
  GQ82                        0.01      0.01      7.42      0.01         0.01
  GQ84                        0.01      0.01      0.58      0.01         0.01
  GQ85                        0.01      0.01      7.71      0.01         0.01
  GQ86                        0.01      0.01      7.57      0.01         0.01
  GQ87                        0.01      0.01      7.57      0.01         0.01
  GQ88                        0.01      0.01      7.56      0.01         0.01
  GQ89                        0.01      0.01      7.42      0.01         0.01
  GQ90                        0.01      0.01      7.35      0.01         0.01
  GQ91                        0.01      0.01      7.45      0.01         0.01
  GQ95                        0.01      0.01      7.63      0.01         0.01
  GQ98                        0.01      0.01      7.52      0.01         0.01
  GQ99                        0.01      0.01      7.24      0.01         0.01
  GQ101                       0.01      0.01      7.46      0.01         0.01
  GQ102                       0.01      0.01      7.49      0.01         0.01
  GQ103                       0.01      0.01      7.52      0.01         0.01
  GQ104                       0.01      0.01      7.52      0.01         0.01
  GQ105                       7.45      7.45      7.49      7.04         0.01
  GQ106                       0.01      0.01      7.47      0.01         0.01
  GQ107                       0.01      0.01      7.47      0.01         0.01
  GQ108                       5.72      5.72      7.45      0.01         0.01
  GQ110                       0.01      0.01      7.36      0.01         0.01
  GQ111                       0.01      0.01      7.46      0.01         0.01
  GQ114                       0.01      0.01      7.58      0.01         0.01
  GQ116                       0.01      0.01      7.57      0.01         0.01
  GQ119                       0.01      0.01      7.54      0.01         0.01
  GQ120                       0.01      0.01      7.51      0.01         0.01
  GQ121                       7.46      7.46      7.54      0.01         0.01
  GQ122                       0.01      0.01      7.46      0.01         0.01
  GQ123                       0.01      0.01      7.47      0.01         0.01
  GQ125                       0.01      0.01      7.45      0.01         0.01
  GQ126                       0.01      0.01      7.46      0.01         0.01
  GQ129                       2.52      2.52      7.55      0.01         0.01
  GQ130                       2.98      2.98      7.74      0.01         0.01
  GQ131                       0.01      0.01      7.69      0.01         0.01
  

  Analysis begun on:  Sat Mar 25 16:18:57 2023
  Analysis ended on:  Sat Mar 25 16:19:00 2023
  Total elapsed time: 00:00:03