
  OWA STORM WATER MANAGEMENT MODEL - VERSION v5.1.14 (OWA 2022-07-31)
  --------------------------------------------------------------

  INP file created by DSDAConvertToSwmmTools 
  version 0.0.1 EcoVista 
  Title/Notes: 
  
  
  *********************************************************
  NOTE: The summary statistics displayed in this report are
  based on results found at every computational time step,  
  not just on results from each reporting time step.
  *********************************************************
  
  ****************
  Analysis Options
  ****************
  Flow Units ............... CMS
  Process Models:
    Rainfall/Runoff ........ YES
    RDII ................... NO
    Snowmelt ............... NO
    Groundwater ............ NO
    Flow Routing ........... YES
    Ponding Allowed ........ NO
    Water Quality .......... NO
  Infiltration Method ...... GREEN_AMPT
  Flow Routing Method ...... DYNWAVE
  Surcharge Method ......... EXTRAN
  Starting Date ............ 07/15/2020 00:00:00
  Ending Date .............. 07/15/2020 17:00:00
  Antecedent Dry Days ...... 0.0
  Report Time Step ......... 00:30:00
  Wet Time Step ............ 00:05:00
  Dry Time Step ............ 01:00:00
  Routing Time Step ........ 30.00 sec
  Variable Time Step ....... YES
  Maximum Trials ........... 8
  Number of Threads ........ 1
  Head Tolerance ........... 0.001500 m
  
  
  **************************        Volume         Depth
  Runoff Quantity Continuity     hectare-m            mm
  **************************     ---------       -------
  Total Precipitation ......       302.535        75.700
  Evaporation Loss .........         6.021         1.506
  Infiltration Loss ........        80.851        20.230
  Surface Runoff ...........       208.487        52.167
  Final Storage ............         7.322         1.832
  Continuity Error (%) .....        -0.048
  
  
  **************************        Volume        Volume
  Flow Routing Continuity        hectare-m      10^6 ltr
  **************************     ---------     ---------
  Dry Weather Inflow .......         0.000         0.000
  Wet Weather Inflow .......       208.422      2084.238
  Groundwater Inflow .......         0.000         0.000
  RDII Inflow ..............         0.000         0.000
  External Inflow ..........         0.000         0.000
  External Outflow .........        17.733       177.334
  Flooding Loss ............       189.219      1892.209
  Evaporation Loss .........         0.000         0.000
  Exfiltration Loss ........         0.000         0.000
  Initial Stored Volume ....         0.000         0.000
  Final Stored Volume ......         1.300        12.997
  Continuity Error (%) .....         0.082
  
  
  *************************
  Highest Continuity Errors
  *************************
  Node jd51 (2.64%)
  Node jd64 (2.13%)
  Node jd59 (2.12%)
  Node jd31 (2.03%)
  Node jd41 (1.81%)
  
  
  ***************************
  Time-Step Critical Elements
  ***************************
  Link GQ73 (98.05%)
  
  
  ********************************
  Highest Flow Instability Indexes
  ********************************
  Link GQ67 (15)
  Link GQ114 (8)
  Link GQ29 (7)
  Link GQ121 (4)
  Link GQ94 (2)
  
  
  *************************
  Routing Time Step Summary
  *************************
  Minimum Time Step           :     0.82 sec
  Average Time Step           :     7.65 sec
  Maximum Time Step           :    30.00 sec
  Percent in Steady State     :     0.00
  Average Iterations per Step :     3.70
  Percent Not Converging      :    12.14
  
  
  ***************************
  Subcatchment Runoff Summary
  ***************************
  
  ------------------------------------------------------------------------------------------------------------------------------
                            Total      Total      Total      Total     Imperv       Perv      Total       Total     Peak  Runoff
                           Precip      Runon       Evap      Infil     Runoff     Runoff     Runoff      Runoff   Runoff   Coeff
  Subcatchment                 mm         mm         mm         mm         mm         mm         mm    10^6 ltr      CMS
  ------------------------------------------------------------------------------------------------------------------------------
  1                         75.70       0.00       0.90      42.41      31.44       0.00      31.44       12.44     1.20   0.415
  2                         75.70       0.00       1.62      16.11      55.89       0.00      55.89       50.54     4.89   0.738
  3                         75.70       0.00       1.68      13.81      58.23       0.00      58.23       23.30     2.25   0.769
  4                         75.70       0.00       1.73      11.86      60.17       0.00      60.17        5.05     0.49   0.795
  5                         75.70       0.00       1.53      19.28      53.20       0.00      53.20        6.58     0.63   0.703
  6                         75.70       0.00       1.47      21.70      50.96       0.00      50.96        4.73     0.46   0.673
  7                         75.70       0.00       1.53      19.37      52.93       0.00      52.93       23.07     2.23   0.699
  8                         75.70       0.00       1.94       4.24      67.20       0.00      67.20        9.36     0.90   0.888
  9                         75.70       0.00       2.00       2.12      69.24       0.00      69.24        8.10     0.78   0.915
  10                        75.70       0.00       1.72      12.31      59.66       0.00      59.66       13.44     1.30   0.788
  11                        75.70       0.00       1.86       7.24      64.36       0.00      64.36       31.91     3.08   0.850
  12                        75.70       0.00       1.46      21.76      50.78       0.00      50.78       24.77     2.39   0.671
  13                        75.70       0.00       1.83       8.16      63.50       0.00      63.50       28.72     2.78   0.839
  14                        75.70       0.00       1.83       8.26      63.50       0.00      63.50       11.98     1.16   0.839
  15                        75.70       0.00       1.69      13.31      58.70       0.00      58.70       19.84     1.92   0.775
  16                        75.70       0.00       1.76      11.00      60.85       0.00      60.85       17.97     1.74   0.804
  17                        75.70       0.00       1.65      15.11      57.01       0.00      57.01       23.86     2.30   0.753
  18                        75.70       0.00       1.89       5.96      65.55       0.00      65.55       27.07     2.62   0.866
  19                        75.70       0.00       1.89       6.23      65.28       0.00      65.28       14.68     1.42   0.862
  20                        75.70       0.00       1.88       6.65      64.76       0.00      64.76       34.75     3.37   0.856
  21                        75.70       0.00       2.00       2.23      69.03       0.00      69.03       21.66     2.10   0.912
  22                        75.70       0.00       1.96       3.57      67.75       0.00      67.75        8.33     0.81   0.895
  23                        75.70       0.00       1.80       9.26      62.41       0.00      62.41       35.73     3.46   0.824
  24                        75.70       0.00       1.74      11.56      60.24       0.00      60.24       10.68     1.03   0.796
  25                        75.70       0.00       1.86       7.10      64.55       0.00      64.55       13.07     1.26   0.853
  26                        75.70       0.00       1.59      17.27      54.84       0.00      54.84       19.25     1.86   0.724
  27                        75.70       0.00       1.90       5.67      65.68       0.00      65.68       27.76     2.69   0.868
  28                        75.70       0.00       1.94       4.17      67.15       0.00      67.15       31.74     3.07   0.887
  29                        75.70       0.00       1.74      11.75      60.23       0.00      60.23       14.06     1.36   0.796
  30                        75.70       0.00       1.99       2.56      68.92       0.00      68.92        4.94     0.48   0.910
  31                        75.70       0.00       2.01       1.59      69.67       0.00      69.67       15.35     1.48   0.920
  32                        75.70       0.00       1.96       3.37      67.97       0.00      67.97       29.37     2.84   0.898
  33                        75.70       0.00       1.99       2.46      68.79       0.00      68.79       24.24     2.34   0.909
  34                        75.70       0.00       1.85       7.67      63.97       0.00      63.97       18.75     1.81   0.845
  35                        75.70       0.00       1.90       5.71      65.79       0.00      65.79       27.29     2.64   0.869
  36                        75.70       0.00       1.57      18.03      54.31       0.00      54.31       21.37     2.06   0.717
  37                        75.70       0.00       1.94       4.09      67.30       0.00      67.30       14.94     1.44   0.889
  38                        75.70       0.00       1.82       8.57      63.14       0.00      63.14       24.08     2.33   0.834
  39                        75.70       0.00       1.65      15.05      57.09       0.00      57.09       24.11     2.33   0.754
  40                        75.70       0.00       1.83       8.19      63.49       0.00      63.49       14.52     1.40   0.839
  41                        75.70       0.00       1.87       6.66      64.98       0.00      64.98       12.82     1.24   0.858
  42                        75.70       0.00       1.87       6.73      64.72       0.00      64.72       15.98     1.55   0.855
  43                        75.70       0.00       1.58      17.70      54.51       0.00      54.51       43.09     4.16   0.720
  44                        75.70       0.00       1.68      13.80      58.14       0.00      58.14       28.10     2.72   0.768
  45                        75.70       0.00       1.58      17.56      54.68       0.00      54.68       39.57     3.82   0.722
  46                        75.70       0.00       1.52      19.56      52.92       0.00      52.92       26.45     2.55   0.699
  47                        75.70       0.00       1.60      16.74      55.44       0.00      55.44       64.64     6.25   0.732
  48                        75.70       0.00       1.91       5.24      66.06       0.00      66.06       38.34     3.71   0.873
  49                        75.70       0.00       1.75      11.21      60.49       0.00      60.49       40.95     3.96   0.799
  50                        75.70       0.00       1.94       4.26      66.86       0.00      66.86       26.28     2.55   0.883
  51                        75.70       0.00       1.86       7.35      64.01       0.00      64.01       11.98     1.16   0.846
  52                        75.70       0.00       0.90      42.47      31.42       0.00      31.42       32.25     3.10   0.415
  53                        75.70       0.00       1.31      27.57      45.42       0.00      45.42       48.38     4.66   0.600
  54                        75.70       0.00       1.61      16.30      55.90       0.00      55.90       13.63     1.32   0.738
  55                        75.70       0.00       0.92      41.69      32.15       0.00      32.15       25.37     2.44   0.425
  56                        75.70       0.00       0.35      62.88      12.21       0.00      12.21        9.95     0.95   0.161
  57                        75.70       0.00       1.83       8.43      63.10       0.00      63.10       52.42     5.07   0.834
  58                        75.70       0.00       1.69      13.37      58.64       0.00      58.64        9.65     0.93   0.775
  59                        75.70       0.00       1.65      14.86      57.35       0.00      57.35        7.30     0.70   0.758
  60                        75.70       0.00       0.62      52.90      21.61       0.00      21.61        6.19     0.59   0.286
  61                        75.70       0.00       0.96      40.24      33.42       0.00      33.42       12.59     1.21   0.441
  62                        75.70       0.00       1.34      26.34      46.43       0.00      46.43       54.41     5.26   0.613
  63                        75.70       0.00       1.83       8.34      63.09       0.00      63.09      122.01    11.82   0.833
  64                        75.70       0.00       1.36      25.45      47.39       0.00      47.39       10.17     0.98   0.626
  65                        75.70       0.00       1.86       7.39      64.01       0.00      64.01       43.05     4.17   0.846
  66                        75.70       0.00       1.46      21.90      50.56       0.00      50.56       12.88     1.25   0.668
  67                        75.70       0.00       1.37      25.41      47.47       0.00      47.47       15.35     1.48   0.627
  68                        75.70       0.00       1.64      15.38      56.80       0.00      56.80        6.31     0.61   0.750
  69                        75.70       0.00       0.96      40.29      33.55       0.00      33.55       10.74     1.03   0.443
  70                        75.70       0.00       1.35      25.87      46.90       0.00      46.90       38.59     3.73   0.620
  71                        75.70       0.00       1.67      14.15      57.94       0.00      57.94        7.11     0.69   0.765
  72                        75.70       0.00       1.76      10.80      61.08       0.00      61.08        7.61     0.73   0.807
  73                        75.70       0.00       1.60      16.90      55.43       0.00      55.43        9.21     0.89   0.732
  74                        75.70       0.00       1.52      19.66      52.82       0.00      52.82       11.37     1.10   0.698
  75                        75.70       0.00       1.69      13.41      58.65       0.00      58.65        8.45     0.82   0.775
  76                        75.70       0.00       1.78      10.17      61.72       0.00      61.72        5.98     0.58   0.815
  77                        75.70       0.00       1.90       5.82      65.72       0.00      65.72        7.11     0.69   0.868
  78                        75.70       0.00       1.83       8.29      63.40       0.00      63.40        6.97     0.67   0.837
  79                        75.70       0.00       0.80      46.13      27.99       0.00      27.99       29.68     2.85   0.370
  80                        75.70       0.00       1.51      19.97      52.37       0.00      52.37       32.78     3.17   0.692
  81                        75.70       0.00       1.54      19.10      53.19       0.00      53.19       23.18     2.24   0.703
  82                        75.70       0.00       1.47      21.50      50.95       0.00      50.95       46.71     4.51   0.673
  83                        75.70       0.00       1.84       7.94      63.78       0.00      63.78        7.80     0.75   0.843
  84                        75.70       0.00       1.74      11.76      60.15       0.00      60.15        7.18     0.69   0.795
  85                        75.70       0.00       2.04       0.58      70.70       0.00      70.70        6.57     0.64   0.934
  86                        75.70       0.00       1.88       6.39      65.19       0.00      65.19        9.60     0.93   0.861
  87                        75.70       0.00       2.01       1.62      69.60       0.00      69.60        9.15     0.89   0.919
  88                        75.70       0.00       1.80       9.44      62.38       0.00      62.38        5.97     0.58   0.824
  89                        75.70       0.00       1.89       6.09      65.51       0.00      65.51       12.62     1.22   0.865
  90                        75.70       0.00       2.06       0.02      71.28       0.00      71.28        0.82     0.08   0.942
  91                        75.70       0.00       1.71      12.68      59.12       0.00      59.12       12.89     1.25   0.781
  92                        75.70       0.00       1.90       5.89      65.67       0.00      65.67        8.21     0.79   0.867
  93                        75.70       0.00       1.55      18.80      53.54       0.00      53.54       27.40     2.65   0.707
  94                        75.70       0.00       1.39      24.52      48.37       0.00      48.37        3.39     0.33   0.639
  95                        75.70       0.00       2.05       0.08      71.15       0.00      71.15        1.55     0.15   0.940
  96                        75.70       0.00       1.66      14.66      57.49       0.00      57.49        7.02     0.68   0.759
  97                        75.70       0.00       2.01       1.60      69.69       0.00      69.69        6.92     0.67   0.921
  98                        75.70       0.00       1.67      14.30      57.84       0.00      57.84        7.13     0.69   0.764
  99                        75.70       0.00       0.83      45.29      28.81       0.00      28.81       10.69     1.03   0.381
  100                       75.70       0.00       0.92      41.89      32.02       0.00      32.02        8.21     0.79   0.423
  101                       75.70       0.00       0.94      41.06      32.77       0.00      32.77       16.06     1.54   0.433
  102                       75.70       0.00       1.53      19.25      53.15       0.00      53.15       12.96     1.25   0.702
  103                       75.70       0.00       0.51      56.83      17.93       0.00      17.93        6.52     0.62   0.237
  104                       75.70       0.00       0.35      62.93      12.12       0.00      12.12       11.75     1.12   0.160
  105                       75.70       0.00       1.69      13.44      58.65       0.00      58.65        7.67     0.74   0.775
  106                       75.70       0.00       0.92      41.98      31.91       0.00      31.91        7.79     0.75   0.421
  
  
  ******************
  Node Depth Summary
  ******************
  
  ---------------------------------------------------------------------------------
                                 Average  Maximum  Maximum  Time of Max    Reported
                                   Depth    Depth      HGL   Occurrence   Max Depth
  Node                 Type       Meters   Meters   Meters  days hr:min      Meters
  ---------------------------------------------------------------------------------
  jd1                  JUNCTION     0.13     0.27   273.27     0  10:00        0.27
  jd2                  JUNCTION     0.88     3.00   270.00     0  08:19        3.00
  jd3                  JUNCTION     2.86     3.00   266.00     0  02:16        3.00
  jd4                  JUNCTION     1.74     3.00   270.00     0  07:25        3.00
  jd5                  JUNCTION     0.09     0.19   274.19     0  10:00        0.19
  jd6                  JUNCTION     0.12     0.26   275.26     0  10:00        0.26
  jd7                  JUNCTION     0.36     0.68   264.78     0  10:00        0.68
  jd8                  JUNCTION     2.03     3.00   267.00     0  07:10        3.00
  jd9                  JUNCTION     1.80     3.00   268.00     0  07:10        3.00
  jd10                 JUNCTION     2.87     3.00   273.00     0  02:06        3.00
  jd11                 JUNCTION     0.10     0.23   282.23     0  10:00        0.23
  jd12                 JUNCTION     2.88     3.00   272.00     0  01:58        3.00
  jd13                 JUNCTION     0.13     0.32   289.32     0  10:00        0.32
  jd14                 JUNCTION     0.73     3.00   283.00     0  08:24        3.00
  jd15                 JUNCTION     0.31     0.74   278.74     0  10:00        0.74
  jd16                 JUNCTION     0.39     3.00   277.00     0  09:34        1.66
  jd17                 JUNCTION     2.22     3.00   278.80     0  06:19        3.00
  jd18                 JUNCTION     0.80     3.00   282.00     0  08:28        3.00
  jd19                 JUNCTION     1.69     3.00   270.00     0  07:24        3.00
  jd20                 JUNCTION     0.23     0.51   273.51     0  10:00        0.51
  jd21                 JUNCTION     2.84     3.00   273.00     0  03:27        3.00
  jd22                 JUNCTION     2.02     3.00   275.00     0  08:03        3.00
  jd23                 JUNCTION     0.54     3.00   281.00     0  09:08        3.00
  jd24                 JUNCTION     0.15     0.35   285.35     0  10:00        0.35
  jd25                 JUNCTION     0.50     3.00   282.00     0  09:11        2.97
  jd26                 JUNCTION     0.80     3.00   288.00     0  08:21        3.00
  jd27                 JUNCTION     0.50     3.00   294.00     0  09:09        3.00
  jd28                 JUNCTION     2.90     3.00   290.00     0  01:50        3.00
  jd29                 JUNCTION     0.11     0.23   299.23     0  10:00        0.23
  jd30                 JUNCTION     0.14     0.29   290.29     0  10:00        0.29
  jd31                 JUNCTION     1.20     2.49   274.49     0  10:00        2.49
  jd32                 JUNCTION     2.89     3.00   275.00     0  01:55        3.00
  jd33                 JUNCTION     0.21     0.50   289.50     0  10:00        0.50
  jd34                 JUNCTION     0.53     3.00   297.00     0  09:03        3.00
  jd35                 JUNCTION     2.91     3.00   292.00     0  01:40        3.00
  jd36                 JUNCTION     0.96     3.00   302.00     0  08:12        3.00
  jd37                 JUNCTION     0.92     3.00   306.00     0  08:12        3.00
  jd38                 JUNCTION     0.66     3.00   300.00     0  09:07        3.00
  jd39                 JUNCTION     2.86     3.00   297.00     0  02:15        3.00
  jd40                 JUNCTION     1.64     3.00   302.00     0  07:47        3.00
  jd41                 JUNCTION     2.72     3.00   296.00     0  04:25        3.00
  jd42                 JUNCTION     0.23     0.60   305.60     0  10:00        0.60
  jd43                 JUNCTION     1.58     3.00   300.00     0  08:05        3.00
  jd44                 JUNCTION     1.61     3.00   286.00     0  08:01        3.00
  jd45                 JUNCTION     2.88     3.00   282.00     0  02:03        3.00
  jd46                 JUNCTION     0.56     3.00   278.00     0  09:11        3.00
  jd47                 JUNCTION     0.17     0.37   315.37     0  10:00        0.37
  jd48                 JUNCTION     0.12     0.27   325.27     0  10:00        0.27
  jd49                 JUNCTION     0.53     3.00   292.00     0  09:11        3.00
  jd50                 JUNCTION     2.90     3.00   278.00     0  01:47        3.00
  jd51                 JUNCTION     2.62     3.00   313.00     0  05:45        3.00
  jd52                 JUNCTION     0.74     3.00   326.00     0  08:21        2.06
  jd53                 JUNCTION     0.98     3.00   325.00     0  08:17        3.00
  jd54                 JUNCTION     0.33     0.93   326.93     0  10:00        0.93
  jd55                 JUNCTION     1.73     3.00   325.00     0  08:21        3.00
  jd56                 JUNCTION     0.22     0.60   327.60     0  10:00        0.60
  jd59                 JUNCTION     2.55     3.00   320.80     0  06:12        3.00
  jd60                 JUNCTION     2.89     3.00   319.00     0  01:57        3.00
  jd61                 JUNCTION     0.16     0.38   329.38     0  10:00        0.38
  jd62                 JUNCTION     0.07     0.15   335.15     0  10:00        0.15
  jd63                 JUNCTION     0.08     0.17   324.17     0  10:00        0.17
  jd64                 JUNCTION     2.39     3.00   321.00     0  06:12        3.00
  jd65                 JUNCTION     1.87     3.00   307.00     0  07:08        3.00
  jd66                 JUNCTION     2.86     3.00   304.00     0  02:11        3.00
  jd69                 JUNCTION     0.27     0.72   333.72     0  10:00        0.72
  jd79                 JUNCTION     2.77     3.00   274.00     0  01:52        3.00
  jd80                 JUNCTION     2.27     3.00   279.00     0  06:19        3.00
  jd81                 JUNCTION     0.16     0.40   288.40     0  10:00        0.40
  jd83                 JUNCTION     2.92     3.00   323.00     0  01:37        3.00
  jd84                 JUNCTION     0.56     3.00   326.00     0  09:01        3.00
  jd85                 JUNCTION     2.87     3.00   324.00     0  02:07        3.00
  jd87                 JUNCTION     2.88     3.00   322.00     0  02:01        3.00
  jd89                 JUNCTION     0.26     3.00   327.00     0  09:26        1.68
  jd90                 JUNCTION     0.15     0.37   328.37     0  10:00        0.37
  jd92                 JUNCTION     0.21     2.17   328.17     0  09:22        0.99
  jd93                 JUNCTION     0.97     3.00   327.00     0  08:16        3.00
  jd94                 JUNCTION     0.58     3.00   329.20     0  08:28        2.34
  jd95                 JUNCTION     0.68     3.00   330.00     0  08:32        2.88
  jd96                 JUNCTION     2.89     3.00   308.00     0  01:57        3.00
  jd97                 JUNCTION     0.70     3.00   330.20     0  08:32        3.00
  jd98                 JUNCTION     0.30     2.67   331.67     0  09:13        1.60
  jd99                 JUNCTION     2.86     3.00   327.00     0  02:13        3.00
  jd101                JUNCTION     0.12     0.25   321.25     0  10:00        0.25
  jd102                JUNCTION     0.53     3.00   327.00     0  09:06        3.00
  jd103                JUNCTION     0.12     0.28   318.28     0  10:00        0.28
  jd106                JUNCTION     2.74     3.00   287.00     0  03:43        3.00
  jd107                JUNCTION     0.23     0.53   332.53     0  10:00        0.53
  jd108                JUNCTION     1.23     1.76   327.76     0  09:34        1.75
  jd109                JUNCTION     0.18     0.47   343.47     0  10:00        0.47
  jd110                JUNCTION     2.87     3.00   327.00     0  02:10        3.00
  jd111                JUNCTION     0.08     0.17   344.17     0  10:00        0.17
  jd112                JUNCTION     0.10     0.22   334.22     0  10:00        0.22
  jd113                JUNCTION     0.11     0.25   348.25     0  10:00        0.25
  jd114                JUNCTION     2.88     3.00   317.00     0  02:01        3.00
  jd117                JUNCTION     1.45     3.00   319.00     0  09:02        3.00
  jd118                JUNCTION     0.10     0.23   330.23     0  10:00        0.23
  jd120                JUNCTION     0.32     3.00   330.00     0  09:13        1.98
  jd121                JUNCTION     0.19     0.53   320.53     0  10:00        0.53
  jd122                JUNCTION     2.86     3.00   276.00     0  02:19        3.00
  jd123                JUNCTION     2.84     3.00   276.20     0  02:19        3.00
  jd124                JUNCTION     2.93     3.00   271.00     0  01:30        3.00
  jd125                JUNCTION     1.71     3.00   278.00     0  07:25        3.00
  jd126                JUNCTION     2.92     3.00   275.00     0  01:38        3.00
  jd135                JUNCTION     0.16     0.46   289.46     0  10:00        0.46
  jd136                JUNCTION     0.51     3.00   344.00     0  09:13        3.00
  psk1                 OUTFALL      0.10     0.22   279.22     0  10:00        0.22
  psk2                 OUTFALL      0.14     0.28   270.28     0  10:00        0.28
  psk3                 OUTFALL      0.36     1.00   272.00     0  09:16        1.00
  psk4                 OUTFALL      0.00     0.00   280.00     0  00:00        0.00
  psk5                 OUTFALL      0.13     0.27   263.27     0  10:00        0.27
  psk6                 OUTFALL      0.09     0.19   259.19     0  10:00        0.19
  psk7                 OUTFALL      0.36     0.68   262.68     0  10:00        0.68
  psk8                 OUTFALL      0.00     0.00   317.00     0  00:00        0.00
  
  
  *******************
  Node Inflow Summary
  *******************
  
  -------------------------------------------------------------------------------------------------
                                  Maximum  Maximum                  Lateral       Total        Flow
                                  Lateral    Total  Time of Max      Inflow      Inflow     Balance
                                   Inflow   Inflow   Occurrence      Volume      Volume       Error
  Node                 Type           CMS      CMS  days hr:min    10^6 ltr    10^6 ltr     Percent
  -------------------------------------------------------------------------------------------------
  jd1                  JUNCTION     1.198    1.547     0  10:00        12.4        18.8       0.066
  jd2                  JUNCTION     1.862    2.405     0  10:00        19.2        25.8       0.094
  jd3                  JUNCTION     2.231    3.950     0  10:00        23.1        59.9       0.673
  jd4                  JUNCTION     2.688    2.962     0  10:00        27.7        30.9       0.116
  jd5                  JUNCTION     0.783    1.173     0  10:00         8.1        13.4       0.025
  jd6                  JUNCTION     0.904    0.904     0  10:00        9.35        9.35       0.034
  jd7                  JUNCTION     0.456    3.339     0  10:00        4.73        54.6       0.078
  jd8                  JUNCTION     0.634    1.580     0  10:00        6.58        35.2       0.490
  jd9                  JUNCTION     0.487    1.555     0  10:00        5.05        34.9       0.115
  jd10                 JUNCTION     1.298    1.636     0  10:00        13.4          17       0.594
  jd11                 JUNCTION     1.917    1.917     0  10:00        19.8        19.8       0.036
  jd12                 JUNCTION     1.444    3.239     0  10:00        14.9        32.8       0.420
  jd13                 JUNCTION     2.617    2.617     0  10:00        27.1        27.1       0.033
  jd14                 JUNCTION     3.072    3.492     0  10:00        31.7        35.8       0.067
  jd15                 JUNCTION     1.263    2.220     0  10:00        13.1        27.4       0.188
  jd16                 JUNCTION     1.357    5.107     0  10:00        14.1        54.5       0.066
  jd17                 JUNCTION     2.840    5.411     0  10:00        29.4        69.3       0.917
  jd18                 JUNCTION     2.251    3.305     0  10:00        23.3          34       0.094
  jd19                 JUNCTION     2.090    3.676     0  10:00        21.6        42.2       0.074
  jd20                 JUNCTION     1.737    1.982     0  10:00          18        27.5       0.140
  jd21                 JUNCTION     0.806    3.872     0  10:00        8.33        58.2       0.588
  jd22                 JUNCTION     1.420    2.416     0  10:00        14.7          30       0.276
  jd23                 JUNCTION     1.403    4.198     0  10:00        14.5        41.7       0.017
  jd24                 JUNCTION     2.305    2.305     0  10:00        23.8        23.8       0.037
  jd25                 JUNCTION     1.813    2.654     0  10:00        18.7        27.2       0.062
  jd26                 JUNCTION     2.639    3.911     0  10:00        27.3        43.8       0.065
  jd27                 JUNCTION     2.718    3.341     0  10:00        28.1        42.5       0.072
  jd28                 JUNCTION     3.713    4.626     0  10:00        38.3        51.6       0.260
  jd29                 JUNCTION     1.485    1.485     0  10:00        15.3        15.3       0.020
  jd30                 JUNCTION     1.547    3.558     0  10:00          16        44.2       0.041
  jd31                 JUNCTION     1.033    1.846     0  10:00        10.7          22       2.074
  jd32                 JUNCTION     2.095    5.428     0  10:00        21.7          79       0.315
  jd33                 JUNCTION     2.063    3.133     0  10:00        21.4        34.9       0.041
  jd34                 JUNCTION     2.551    2.551     0  10:00        26.4        26.4       0.025
  jd35                 JUNCTION     2.328    4.509     0  10:00        24.1        68.6       0.191
  jd36                 JUNCTION     3.964    4.998     0  10:00        40.9        61.1       0.071
  jd37                 JUNCTION     4.165    4.165     0  10:00        43.1        43.1       0.055
  jd38                 JUNCTION     3.823    4.630     0  10:00        39.6        58.8       0.114
  jd39                 JUNCTION     2.647    6.166     0  10:00        27.4          93       0.554
  jd40                 JUNCTION     4.515    6.707     0  10:00        46.7        96.2       0.127
  jd41                 JUNCTION     3.170    9.770     0  10:00        32.8         119       1.838
  jd42                 JUNCTION     4.170    4.569     0  10:00          43        47.2       0.081
  jd43                 JUNCTION     4.660    7.196     0  10:00        48.4        82.1       0.115
  jd44                 JUNCTION     6.246    9.123     0  10:00        64.6         128       0.124
  jd45                 JUNCTION     2.546    4.771     0  10:00        26.3        82.1       0.396
  jd46                 JUNCTION     1.160    1.160     0  10:00          12          12       0.256
  jd47                 JUNCTION     3.726    3.726     0  10:00        38.6        38.6       0.039
  jd48                 JUNCTION     1.030    1.030     0  10:00        10.7        10.7       0.038
  jd49                 JUNCTION     5.075    5.075     0  10:00        52.4        52.4       0.058
  jd50                 JUNCTION     5.256    9.186     0  10:00        54.4         130       0.336
  jd51                 JUNCTION     1.096    4.916     0  10:00        11.4        51.9       2.708
  jd52                 JUNCTION     2.241    4.106     0  08:20        23.2          66       0.120
  jd53                 JUNCTION     1.248    4.749     0  10:00        12.9          60       0.047
  jd54                 JUNCTION     0.669    3.307     0  10:00        6.92        34.4       0.075
  jd55                 JUNCTION     1.219    5.467     0  10:00        12.6        47.1       1.629
  jd56                 JUNCTION     0.740    2.166     0  10:00        7.67        22.4       0.055
  jd59                 JUNCTION     0.735    3.337     0  10:00        7.61        36.6       2.165
  jd60                 JUNCTION     1.316    2.800     0  10:00        13.6          29       0.442
  jd61                 JUNCTION     1.478    1.661     0  10:00        15.3        17.3       0.041
  jd62                 JUNCTION     0.594    0.594     0  10:00        6.19        6.19       0.012
  jd63                 JUNCTION     0.816    0.816     0  10:00        8.45        8.45       0.025
  jd64                 JUNCTION     0.687    1.697     0  10:00        7.11        17.6       2.173
  jd65                 JUNCTION    11.816   11.816     0  10:00         122         122       0.049
  jd66                 JUNCTION     1.542    4.471     0  10:00        16.1        46.5       0.683
  jd69                 JUNCTION     2.850    2.930     0  10:00        29.7        30.5       0.049
  jd79                 JUNCTION     2.776    3.693     0  10:00        28.7        47.1       0.373
  jd80                 JUNCTION     3.085    3.693     0  10:00        31.9        41.2       0.277
  jd81                 JUNCTION     2.345    2.345     0  10:00        24.2        24.2       0.014
  jd83                 JUNCTION     2.440    3.018     0  10:00        25.4        32.3       0.266
  jd84                 JUNCTION     3.100    3.100     0  10:00        32.2        32.2       0.034
  jd85                 JUNCTION     0.704    1.152     0  10:00         7.3          12       0.708
  jd87                 JUNCTION     0.577    1.385     0  10:00        5.98        14.4       0.513
  jd89                 JUNCTION     0.673    0.673     0  10:00        6.96        6.96       0.050
  jd90                 JUNCTION     0.686    0.686     0  10:00        7.11        7.11       0.039
  jd92                 JUNCTION     0.577    0.577     0  10:00        5.97        5.97       0.023
  jd93                 JUNCTION     1.245    2.221     0  10:00        12.9        26.3       0.085
  jd94                 JUNCTION     0.079    0.975     0  09:35       0.818        13.5       0.072
  jd95                 JUNCTION     0.150    0.903     0  10:04        1.55        12.7       0.113
  jd96                 JUNCTION     1.124    1.501     0  10:00        11.7        15.6       0.612
  jd97                 JUNCTION     1.215    1.215     0  10:00        12.6        12.6       0.020
  jd98                 JUNCTION     0.678    0.678     0  10:00        7.02        7.02       0.040
  jd99                 JUNCTION     0.326    0.649     0  09:20        3.39        9.22       0.616
  jd101                JUNCTION     0.888    1.590     0  10:00         9.2        17.8       0.033
  jd102                JUNCTION     0.885    0.885     0  10:00        9.15        9.15       0.052
  jd103                JUNCTION     0.609    0.609     0  10:00        6.31        6.31       0.013
  jd106                JUNCTION     0.477    2.683     0  10:00        4.94        28.6       1.370
  jd107                JUNCTION     0.688    2.263     0  10:00        7.13        23.4       0.067
  jd108                JUNCTION     0.748    0.748     0  10:00        7.78         7.8       0.842
  jd109                JUNCTION     1.251    1.251     0  10:00          13          13       0.016
  jd110                JUNCTION     0.950    1.414     0  10:00        9.94        14.8       1.036
  jd111                JUNCTION     0.788    0.788     0  10:00        8.21        8.21       0.021
  jd112                JUNCTION     0.928    2.479     0  10:00         9.6        26.5       0.026
  jd113                JUNCTION     0.624    0.624     0  10:00        6.52        6.52       0.002
  jd114                JUNCTION     0.753    4.469     0  10:00        7.79        80.3       0.393
  jd117                JUNCTION     0.694    2.225     0  10:00        7.18        23.6       0.673
  jd118                JUNCTION     0.635    0.635     0  10:00        6.57        6.57       0.005
  jd120                JUNCTION     0.793    0.793     0  10:00        8.21        8.21       0.021
  jd121                JUNCTION     0.981    0.981     0  10:00        10.2        10.2       0.034
  jd122                JUNCTION     2.327    7.010     0  10:00        24.1        94.8       0.595
  jd123                JUNCTION     2.392    4.969     0  10:00        24.8        83.8       0.847
  jd124                JUNCTION     3.456    4.529     0  10:00        35.7          68       0.084
  jd125                JUNCTION     3.365    5.040     0  10:00        34.7        81.6       0.062
  jd126                JUNCTION     4.891    5.754     0  10:00        50.5        66.6       0.152
  jd135                JUNCTION     1.238    1.238     0  10:00        12.8        12.8       0.021
  jd136                JUNCTION     1.026    1.650     0  10:00        10.7        17.2       0.058
  psk1                 OUTFALL      0.000    1.208     0  10:00           0        12.7       0.000
  psk2                 OUTFALL      0.000    2.730     0  10:00           0        33.1       0.000
  psk3                 OUTFALL      0.000    5.107     0  10:00           0        54.4       0.000
  psk4                 OUTFALL      0.000    0.000     0  00:00           0           0       0.000 ltr
  psk5                 OUTFALL      0.000    1.005     0  10:00           0        12.2       0.000
  psk6                 OUTFALL      0.000    0.900     0  10:00           0        10.3       0.000
  psk7                 OUTFALL      0.000    3.339     0  10:00           0        54.6       0.000
  psk8                 OUTFALL      0.000    0.000     0  00:00           0           0       0.000 ltr
  
  
  **********************
  Node Surcharge Summary
  **********************
  
  Surcharging occurs when water rises above the top of the highest conduit.
  ---------------------------------------------------------------------
                                               Max. Height   Min. Depth
                                   Hours       Above Crown    Below Rim
  Node                 Type      Surcharged         Meters       Meters
  ---------------------------------------------------------------------
  jd2                  JUNCTION        2.19          2.200        0.000
  jd3                  JUNCTION       14.73          2.200        0.000
  jd4                  JUNCTION        6.00          2.200        0.000
  jd8                  JUNCTION        9.86          2.200        0.000
  jd9                  JUNCTION        6.30          2.200        0.000
  jd10                 JUNCTION       14.90          2.400        0.000
  jd12                 JUNCTION       15.03          2.400        0.000
  jd14                 JUNCTION        1.89          2.400        0.000
  jd16                 JUNCTION        0.47          2.000        0.000
  jd17                 JUNCTION        9.99          2.200        0.000
  jd18                 JUNCTION        1.86          2.000        0.000
  jd19                 JUNCTION        5.79          2.200        0.000
  jd21                 JUNCTION       14.82          2.200        0.000
  jd22                 JUNCTION       13.80          2.400        0.000
  jd23                 JUNCTION        1.07          2.000        0.000
  jd25                 JUNCTION        0.92          2.000        0.000
  jd26                 JUNCTION        1.96          2.400        0.000
  jd27                 JUNCTION        0.98          2.400        0.000
  jd28                 JUNCTION       15.17          2.400        0.000
  jd31                 JUNCTION       13.56          1.686        0.514
  jd32                 JUNCTION       15.08          2.200        0.000
  jd34                 JUNCTION        1.07          2.400        0.000
  jd35                 JUNCTION       15.34          2.400        0.000
  jd36                 JUNCTION        2.58          2.400        0.000
  jd37                 JUNCTION        2.34          2.400        0.000
  jd38                 JUNCTION        1.04          2.000        0.000
  jd39                 JUNCTION       14.74          2.000        0.000
  jd40                 JUNCTION        5.45          2.200        0.000
  jd41                 JUNCTION       12.60          1.000        0.000
  jd43                 JUNCTION        5.01          2.200        0.000
  jd44                 JUNCTION        5.18          2.000        0.000
  jd45                 JUNCTION       14.95          2.000        0.000
  jd46                 JUNCTION        1.01          2.200        0.000
  jd49                 JUNCTION        0.92          2.200        0.000
  jd50                 JUNCTION       15.21          2.200        0.000
  jd51                 JUNCTION       11.26          1.350        0.000
  jd52                 JUNCTION        2.16          1.500        0.000
  jd53                 JUNCTION        2.38          1.800        0.000
  jd55                 JUNCTION        5.79          1.500        0.000
  jd59                 JUNCTION       10.80          1.500        0.000
  jd60                 JUNCTION       15.05          2.400        0.000
  jd64                 JUNCTION       10.87          1.800        0.000
  jd65                 JUNCTION        6.60          2.400        0.000
  jd66                 JUNCTION       14.82          2.200        0.000
  jd79                 JUNCTION       15.13          2.400        0.000
  jd80                 JUNCTION       10.38          2.400        0.000
  jd83                 JUNCTION       15.38          2.400        0.000
  jd84                 JUNCTION        1.11          2.400        0.000
  jd85                 JUNCTION       14.88          2.400        0.000
  jd87                 JUNCTION       14.98          2.400        0.000
  jd89                 JUNCTION        0.60          2.400        0.000
  jd92                 JUNCTION        0.65          1.573        0.827
  jd93                 JUNCTION        2.47          2.200        0.000
  jd94                 JUNCTION        1.90          2.200        0.000
  jd95                 JUNCTION        1.71          2.200        0.000
  jd96                 JUNCTION       15.05          2.200        0.000
  jd97                 JUNCTION        1.68          2.200        0.000
  jd98                 JUNCTION        0.81          2.067        0.333
  jd99                 JUNCTION       14.79          2.400        0.000
  jd102                JUNCTION        1.03          2.400        0.000
  jd106                JUNCTION       13.30          2.000        0.000
  jd108                JUNCTION       15.01          0.760        1.240
  jd110                JUNCTION       14.83          2.000        0.000
  jd114                JUNCTION       14.99          2.000        0.000
  jd117                JUNCTION       14.77          2.200        0.000
  jd120                JUNCTION        0.82          2.400        0.000
  jd122                JUNCTION       14.78          2.200        0.000
  jd123                JUNCTION       14.69          2.200        0.000
  jd124                JUNCTION       15.49          2.400        0.000
  jd125                JUNCTION        6.02          2.200        0.000
  jd126                JUNCTION       15.36          2.400        0.000
  jd136                JUNCTION        0.82          2.200        0.000
  
  
  *********************
  Node Flooding Summary
  *********************
  
  Flooding refers to all water that overflows a node, whether it ponds or not.
  --------------------------------------------------------------------------
                                                             Total   Maximum
                                 Maximum   Time of Max       Flood    Ponded
                        Hours       Rate    Occurrence      Volume     Depth
  Node                 Flooded       CMS   days hr:min    10^6 ltr    Meters
  --------------------------------------------------------------------------
  jd2                     1.69     1.196      0  10:00       4.034     0.000
  jd3                    14.73     3.950      0  10:00      59.511     0.000
  jd4                     5.77     2.451      0  10:00      15.779     0.000
  jd8                     5.71     0.465      0  10:00       3.325     0.000
  jd9                     5.62     0.609      0  10:00       6.243     0.000
  jd10                   14.89     1.636      0  10:00      16.933     0.000
  jd12                   15.03     3.239      0  10:00      32.639     0.000
  jd14                    1.15     1.672      0  10:00       5.404     0.000
  jd16                    0.01     0.265      0  09:34       0.001     0.000
  jd17                    6.34     4.582      0  10:00      38.139     0.000
  jd18                    1.71     1.781      0  10:00       6.288     0.000
  jd19                    4.24     2.608      0  10:00      12.248     0.000
  jd21                   13.55     3.872      0  10:00      57.592     0.000
  jd22                    4.64     1.593      0  10:00       8.513     0.000
  jd23                    0.88     1.182      0  10:00       3.341     0.000
  jd25                    0.01     0.994      0  09:11       0.022     0.000
  jd26                    1.87     2.015      0  10:00       7.462     0.000
  jd27                    0.89     0.463      0  10:00       1.174     0.000
  jd28                   15.17     4.626      0  10:00      51.448     0.000
  jd32                   15.08     5.428      0  10:00      78.734     0.000
  jd34                    1.00     0.733      0  10:00       2.245     0.000
  jd35                   15.33     4.509      0  10:00      68.427     0.000
  jd36                    2.24     2.941      0  10:00      12.795     0.000
  jd37                    2.16     2.818      0  10:00      11.389     0.000
  jd38                    0.82     0.693      0  09:07       1.096     0.000
  jd39                   14.74     6.166      0  10:00      92.521     0.000
  jd40                    5.09     4.146      0  10:00      27.636     0.000
  jd41                   12.58     9.770      0  10:00     116.416     0.000
  jd43                    4.98     5.364      0  10:00      32.074     0.000
  jd44                    4.12     5.222      0  10:00      24.900     0.000
  jd45                   14.95     4.771      0  10:00      81.778     0.000
  jd46                    0.89     0.347      0  10:00       0.913     0.000
  jd49                    0.88     1.193      0  10:00       3.106     0.000
  jd50                   15.21     9.186      0  10:00     129.206     0.000
  jd51                   11.24     4.916      0  10:00      50.579     0.000
  jd52                    0.01     1.651      0  08:21       0.029     0.000
  jd53                    1.87     2.447      0  10:00       8.263     0.000
  jd55                    2.10     5.467      0  10:00      25.870     0.000
  jd59                   10.79     3.337      0  10:00      35.738     0.000
  jd60                   15.05     2.800      0  10:00      28.860     0.000
  jd64                    0.91     0.255      0  10:00       0.691     0.000
  jd65                    6.51    10.723      0  10:00      82.748     0.000
  jd66                   14.81     4.471      0  10:00      46.219     0.000
  jd79                    9.72     3.447      0  10:00      37.375     0.000
  jd80                    7.30     3.535      0  10:00      32.613     0.000
  jd83                   15.38     3.018      0  10:00      32.250     0.000
  jd84                    1.05     1.260      0  10:00       4.156     0.000
  jd85                   14.87     1.152      0  10:00      11.893     0.000
  jd87                   14.97     1.385      0  10:00      14.355     0.000
  jd89                    0.01     0.049      0  09:26       0.000     0.000
  jd93                    1.69     1.047      0  10:00       3.954     0.000
  jd94                    0.01     0.161      0  08:28       0.001     0.000
  jd95                    0.01     0.057      0  08:32       0.000     0.000
  jd96                   15.05     1.501      0  10:00      15.531     0.000
  jd97                    1.03     0.469      0  10:00       1.475     0.000
  jd99                   14.78     0.649      0  09:20       9.161     0.000
  jd102                   0.94     0.183      0  10:00       0.512     0.000
  jd106                  13.28     2.683      0  10:00      28.252     0.000
  jd110                  14.82     1.414      0  10:00      14.641     0.000
  jd114                  14.78     4.469      0  10:00      79.865     0.000
  jd117                   1.06     0.811      0  10:00       2.602     0.000
  jd120                   0.01     0.041      0  09:13       0.000     0.000
  jd122                  14.69     7.010      0  10:00      94.183     0.000
  jd123                  11.20     4.654      0  10:00      67.458     0.000
  jd124                  15.49     4.529      0  10:00      67.937     0.000
  jd125                   5.05     2.654      0  10:00      14.962     0.000
  jd126                  15.36     5.754      0  10:00      66.473     0.000
  jd136                   0.79     0.187      0  09:13       0.259     0.000
  
  
  ***********************
  Outfall Loading Summary
  ***********************
  
  -----------------------------------------------------------
                         Flow       Avg       Max       Total
                         Freq      Flow      Flow      Volume
  Outfall Node           Pcnt       CMS       CMS    10^6 ltr
  -----------------------------------------------------------
  psk1                  98.45     0.336     1.208      12.721
  psk2                  98.45     0.871     2.730      33.104
  psk3                  98.48     1.443     5.107      54.437
  psk4                   0.00     0.000     0.000       0.000
  psk5                  98.46     0.317     1.005      12.208
  psk6                  98.44     0.269     0.900      10.293
  psk7                  98.48     1.330     3.339      54.570
  psk8                   0.00     0.000     0.000       0.000
  -----------------------------------------------------------
  System                73.84     4.567     0.000     177.333
  
  
  ********************
  Link Flow Summary
  ********************
  
  -----------------------------------------------------------------------------
                                 Maximum  Time of Max   Maximum    Max/    Max/
                                  |Flow|   Occurrence   |Veloc|    Full    Full
  Link                 Type          CMS  days hr:min     m/sec    Flow   Depth
  -----------------------------------------------------------------------------
  GQ1                  CONDUIT     0.355     0  09:03      1.95    0.93    0.72
  GQ2                  CONDUIT     1.882     0  10:00      2.79    0.89    0.87
  GQ3                  CONDUIT     1.208     0  10:00      7.58    0.05    0.15
  GQ4                  CONDUIT     0.510     0  09:23      1.80    1.00    1.00
  GQ5                  CONDUIT     1.208     0  08:55      2.40    1.00    1.00
  GQ6                  CONDUIT     0.543     0  10:00      1.52    0.25    0.67
  GQ7                  CONDUIT     1.675     0  08:31      3.50    1.00    1.00
  GQ8                  CONDUIT     1.045     0  09:43      2.08    1.00    1.00
  GQ9                  CONDUIT     2.837     0  09:21      5.73    1.00    1.00
  GQ10                 CONDUIT     1.135     0  07:07      4.10    1.04    1.00
  GQ11                 CONDUIT     0.399     0  10:00      2.01    0.43    0.73
  GQ12                 CONDUIT     0.505     0  10:00      2.18    0.55    0.76
  GQ13                 CONDUIT     0.274     0  10:00      0.83    0.13    0.62
  GQ14                 CONDUIT     0.157     0  10:00      1.32    0.22    0.29
  GQ15                 CONDUIT     0.248     0  09:10      4.42    1.00    0.82
  GQ16                 CONDUIT     2.011     0  10:00      4.08    0.97    0.64
  GQ17                 CONDUIT     0.748     0  10:00      2.44    0.24    0.59
  GQ18                 CONDUIT     1.116     0  09:29      2.50    5.03    0.92
  GQ19                 CONDUIT     1.020     0  10:00      2.94    0.12    0.45
  GQ20                 CONDUIT     0.224     0  10:00      0.44    0.12    0.62
  GQ21                 CONDUIT     0.830     0  10:00      1.48    0.26    0.67
  GQ22                 CONDUIT     0.841     0  10:00      1.89    0.26    0.67
  GQ23                 CONDUIT     2.005     0  10:00      2.55    0.98    1.00
  GQ24                 CONDUIT     2.020     0  09:23      4.02    1.00    1.00
  GQ25                 CONDUIT     1.071     0  10:00      4.11    1.20    0.92
  GQ26                 CONDUIT     0.790     0  09:11      3.00    0.92    0.92
  GQ27                 CONDUIT     0.997     0  09:20      3.52    1.00    1.00
  GQ28                 CONDUIT     0.396     0  10:00      0.90    0.42    0.82
  GQ29                 CONDUIT     1.846     0  10:00      3.67    0.86    1.00
  GQ30                 CONDUIT     0.824     0  08:28      2.91    1.00    1.00
  GQ31                 CONDUIT     0.747     0  09:20      2.64    1.00    1.00
  GQ32                 CONDUIT     0.739     0  09:08      2.91    1.19    1.00
  GQ33                 CONDUIT     1.434     0  08:41      5.07    1.00    1.00
  GQ34                 CONDUIT     0.529     0  09:21      1.92    0.83    1.00
  GQ35                 CONDUIT     0.580     0  08:12      2.15    1.08    1.00
  GQ36                 CONDUIT     0.953     0  08:14      3.37    1.18    1.00
  GQ37                 CONDUIT     0.699     0  09:26      2.47    1.00    1.00
  GQ38                 CONDUIT     0.214     0  10:00      0.96    0.31    0.74
  GQ39                 CONDUIT     0.782     0  09:25      2.76    1.00    1.00
  GQ40                 CONDUIT     0.804     0  09:20      2.84    1.00    1.00
  GQ41                 CONDUIT     2.160     0  09:36      2.75    1.00    1.00
  GQ42                 CONDUIT     1.359     0  08:42      2.70    1.00    1.00
  GQ43                 CONDUIT     2.310     0  08:14      4.70    1.03    1.00
  GQ44                 CONDUIT     0.946     0  11:20      1.88    1.00    1.00
  GQ45                 CONDUIT     1.586     0  10:00      3.60    0.64    0.82
  GQ46                 CONDUIT     1.068     0  12:16      2.12    1.00    1.00
  GQ47                 CONDUIT     0.338     0  10:00      1.61    0.32    0.69
  GQ48                 CONDUIT     0.336     0  10:00      1.60    0.32    0.69
  GQ49                 CONDUIT     1.458     0  10:00      6.29    0.55    0.76
  GQ50                 CONDUIT     0.420     0  10:00      1.81    0.55    0.76
  GQ51                 CONDUIT     0.995     0  09:05      3.53    1.52    1.00
  GQ52                 CONDUIT     0.856     0  10:04      1.70    1.14    1.00
  GQ53                 CONDUIT     2.225     0  09:24      2.83    1.00    1.00
  GQ54                 CONDUIT     0.853     0  10:00      3.45    0.73    0.82
  GQ55                 CONDUIT     0.631     0  10:00      2.86    0.43    0.73
  GQ56                 CONDUIT     1.932     0  13:09      4.03    1.05    1.00
  GQ57                 CONDUIT     1.274     0  10:00      2.73    0.83    0.88
  GQ58                 CONDUIT     2.799     0  10:00      6.00    0.88    0.88
  GQ59                 CONDUIT     1.203     0  08:31      2.39    1.00    1.00
  GQ60                 CONDUIT     1.996     0  08:20      1.30    0.48    1.00
  GQ61                 CONDUIT     0.487     0  10:00      0.45    0.06    0.58
  GQ62                 CONDUIT     1.126     0  10:00      0.82    0.11    0.61
  GQ63                 CONDUIT     2.599     0  10:00      1.34    0.08    0.59
  GQ64                 CONDUIT     0.183     0  10:00      1.58    0.14    0.44
  GQ65                 CONDUIT     0.079     0  10:00      0.42    0.14    0.63
  GQ66                 CONDUIT     0.323     0  10:00      1.02    0.10    0.60
  GQ67                 CONDUIT     1.442     0  10:02      1.28    1.00    1.00
  GQ68                 CONDUIT     1.850     0  10:00      2.74    0.59    0.80
  GQ69                 CONDUIT     2.929     0  10:00      5.95    1.04    0.95
  GQ70                 CONDUIT     0.900     0  10:00      9.53    0.13    0.24
  GQ71                 CONDUIT     1.005     0  10:00      6.74    0.24    0.34
  GQ72                 CONDUIT     3.339     0  10:00      5.92    0.80    0.68
  GQ73                 CONDUIT     2.730     0  10:00     14.76    0.18    0.29
  GQ74                 CONDUIT     0.661     0  10:00      1.52    0.12    0.62
  GQ75                 CONDUIT     0.614     0  10:00      1.15    0.18    0.64
  GQ76                 CONDUIT     5.107     0  10:00      6.71    1.10    1.00
  GQ77                 CONDUIT     0.000     0  00:00      0.00    0.00    0.37
  GQ78                 CONDUIT     0.916     0  09:20      3.24    1.00    1.00
  GQ79                 CONDUIT     0.254     0  09:10      1.08    0.55    0.93
  GQ80                 CONDUIT     0.608     0  08:45      2.15    1.00    1.00
  GQ81                 CONDUIT     0.305     0  06:29      1.08    1.93    1.00
  GQ82                 CONDUIT     1.126     0  10:00      4.48    0.78    0.83
  GQ83                 CONDUIT     1.219     0  10:00      4.85    0.78    0.83
  GQ84                 CONDUIT     1.303     0  09:01      4.71    1.03    1.00
  GQ85                 CONDUIT     0.579     0  09:17      2.05    1.00    1.00
  GQ86                 CONDUIT     0.331     0  10:00      1.77    0.14    0.63
  GQ87                 CONDUIT     0.116     0  10:00      0.61    0.17    0.64
  GQ88                 CONDUIT     0.808     0  10:00      3.27    0.72    0.82
  GQ89                 CONDUIT     0.673     0  10:00      2.38    0.89    1.00
  GQ90                 CONDUIT     0.686     0  10:00      2.81    0.69    0.81
  GQ91                 CONDUIT     0.577     0  10:00      2.04    0.71    1.00
  GQ92                 CONDUIT     0.904     0  10:04      1.80    1.30    1.00
  GQ93                 CONDUIT     0.975     0  09:35      1.94    0.84    1.00
  GQ94                 CONDUIT     1.204     0  10:05      2.39    1.43    1.00
  GQ95                 CONDUIT     0.376     0  10:00      1.18    0.10    0.60
  GQ96                 CONDUIT     0.808     0  10:04      1.61    1.38    1.00
  GQ97                 CONDUIT     0.678     0  10:00      2.40    1.22    1.00
  GQ98                 CONDUIT     0.327     0  09:19      1.17    0.46    1.00
  GQ99                 CONDUIT     1.103     0  10:00      1.03    0.06    0.58
  GQ100                CONDUIT     0.702     0  10:00      3.31    1.21    0.71
  GQ101                CONDUIT     0.609     0  10:00      2.73    0.46    0.74
  GQ102                CONDUIT     2.343     0  10:00      5.36    0.71    0.81
  GQ103                CONDUIT     0.649     0  10:00      2.29    1.00    1.00
  GQ104                CONDUIT     1.389     0  09:08      5.02    1.01    1.00
  GQ105                CONDUIT     0.315     0  09:44      0.63    1.00    1.00
  GQ106                CONDUIT     0.633     0  10:00      2.65    0.63    0.79
  GQ107                CONDUIT     1.114     0  08:30      3.94    1.00    1.00
  GQ108                CONDUIT     0.829     0  08:46      1.65    1.00    1.00
  GQ109                CONDUIT     0.469     0  10:00      1.77    0.64    0.88
  GQ110                CONDUIT     0.823     0  10:00      1.62    0.12    0.62
  GQ111                CONDUIT     0.769     0  10:00      2.91    0.70    0.88
  GQ112                CONDUIT     2.263     0  10:00      3.51    0.40    0.61
  GQ113                CONDUIT     1.251     0  10:00      4.99    0.95    0.83
  GQ114                CONDUIT     0.748     0  10:00      1.11    0.31    0.80
  GQ115                CONDUIT     0.324     0  10:00      1.18    0.04    0.29
  GQ116                CONDUIT     0.464     0  10:00      0.97    0.06    0.59
  GQ117                CONDUIT     1.551     0  10:00      4.92    0.97    0.64
  GQ118                CONDUIT     0.624     0  10:00      2.12    0.21    0.66
  GQ119                CONDUIT     2.302     0  09:47      4.58    1.00    1.00
  GQ120                CONDUIT     0.000     0  00:00      0.00    0.00    0.50
  GQ121                CONDUIT     1.414     0  09:38      2.81    1.00    1.00
  GQ122                CONDUIT     0.896     0  10:00      2.65    0.16    0.64
  GQ123                CONDUIT     0.635     0  10:00      3.05    0.31    0.69
  GQ124                CONDUIT     0.375     0  10:00      1.18    0.16    0.64
  GQ125                CONDUIT     0.793     0  10:00      2.81    0.89    1.00
  GQ126                CONDUIT     0.980     0  10:00      3.56    0.93    0.94
  GQ127                CONDUIT     0.821     0  08:13      1.72    1.05    1.00
  GQ128                CONDUIT     3.307     0  10:00      3.12    0.72    0.89
  GQ129                CONDUIT     1.313     0  08:36      2.61    1.00    1.00
  GQ130                CONDUIT     1.073     0  08:36      3.79    1.00    1.00
  GQ131                CONDUIT     0.862     0  09:08      3.05    1.00    1.00
  
  
  ***************************
  Flow Classification Summary
  ***************************
  
  -------------------------------------------------------------------------------------
                      Adjusted    ---------- Fraction of Time in Flow Class ---------- 
                       /Actual         Up    Down  Sub   Sup   Up    Down  Norm  Inlet 
  Conduit               Length    Dry  Dry   Dry   Crit  Crit  Crit  Crit  Ltd   Ctrl  
  -------------------------------------------------------------------------------------
  GQ1                     1.00   0.02  0.00  0.00  0.14  0.84  0.00  0.00  0.00  0.00
  GQ2                     1.00   0.02  0.00  0.00  0.11  0.88  0.00  0.00  0.91  0.00
  GQ3                     1.00   0.02  0.00  0.00  0.00  0.98  0.00  0.00  0.10  0.00
  GQ4                     1.00   0.02  0.00  0.00  0.98  0.00  0.00  0.00  0.52  0.00
  GQ5                     1.00   0.02  0.00  0.00  0.98  0.00  0.00  0.00  0.64  0.00
  GQ6                     1.00   0.02  0.00  0.00  0.98  0.00  0.00  0.00  0.94  0.00
  GQ7                     1.00   0.02  0.00  0.00  0.54  0.45  0.00  0.00  0.04  0.00
  GQ8                     1.00   0.02  0.00  0.00  0.98  0.00  0.00  0.00  0.86  0.00
  GQ9                     1.00   0.02  0.00  0.00  0.60  0.38  0.00  0.00  0.88  0.00
  GQ10                    1.00   0.02  0.00  0.00  0.79  0.19  0.00  0.00  0.55  0.00
  GQ11                    1.00   0.02  0.00  0.00  0.25  0.74  0.00  0.00  0.94  0.00
  GQ12                    1.00   0.02  0.00  0.00  0.90  0.08  0.00  0.00  0.94  0.00
  GQ13                    1.00   0.02  0.00  0.00  0.98  0.00  0.00  0.00  0.94  0.00
  GQ14                    1.00   0.02  0.00  0.00  0.87  0.11  0.00  0.00  0.00  0.00
  GQ15                    1.00   0.02  0.00  0.00  0.00  0.98  0.00  0.00  0.01  0.00
  GQ16                    1.00   0.02  0.00  0.00  0.00  0.98  0.00  0.00  0.00  0.00
  GQ17                    1.00   0.02  0.00  0.00  0.73  0.26  0.00  0.00  0.94  0.00
  GQ18                    1.00   0.02  0.00  0.00  0.70  0.28  0.00  0.00  0.03  0.00
  GQ19                    1.00   0.02  0.00  0.00  0.47  0.52  0.00  0.00  0.94  0.00
  GQ20                    1.00   0.02  0.00  0.00  0.98  0.00  0.00  0.00  0.94  0.00
  GQ21                    1.00   0.02  0.00  0.00  0.64  0.35  0.00  0.00  0.94  0.00
  GQ22                    1.00   0.02  0.00  0.00  0.15  0.84  0.00  0.00  0.94  0.00
  GQ23                    1.00   0.02  0.00  0.00  0.14  0.84  0.00  0.00  0.20  0.00
  GQ24                    1.00   0.02  0.00  0.00  0.89  0.09  0.00  0.00  0.82  0.00
  GQ25                    1.00   0.02  0.00  0.00  0.00  0.98  0.00  0.00  0.01  0.00
  GQ26                    1.00   0.02  0.00  0.00  0.01  0.97  0.00  0.00  0.87  0.00
  GQ27                    1.00   0.02  0.00  0.00  0.77  0.22  0.00  0.00  0.65  0.00
  GQ28                    1.00   0.02  0.00  0.00  0.98  0.00  0.00  0.00  0.81  0.00
  GQ29                    1.00   0.02  0.00  0.00  0.98  0.00  0.00  0.00  0.07  0.00
  GQ30                    1.00   0.02  0.00  0.00  0.98  0.01  0.00  0.00  0.06  0.00
  GQ31                    1.00   0.02  0.00  0.00  0.98  0.00  0.00  0.00  0.81  0.00
  GQ32                    1.00   0.02  0.00  0.00  0.13  0.85  0.00  0.00  0.01  0.00
  GQ33                    1.00   0.02  0.00  0.00  0.66  0.33  0.00  0.00  0.63  0.00
  GQ34                    1.00   0.02  0.00  0.00  0.98  0.00  0.00  0.00  0.87  0.00
  GQ35                    1.00   0.02  0.00  0.00  0.43  0.55  0.00  0.00  0.52  0.00
  GQ36                    1.00   0.02  0.00  0.00  0.26  0.73  0.00  0.00  0.78  0.00
  GQ37                    1.00   0.02  0.00  0.00  0.98  0.00  0.00  0.00  0.76  0.00
  GQ38                    1.00   0.02  0.00  0.00  0.98  0.00  0.00  0.00  0.81  0.00
  GQ39                    1.00   0.02  0.00  0.00  0.97  0.01  0.00  0.00  0.79  0.00
  GQ40                    1.00   0.02  0.00  0.00  0.22  0.77  0.00  0.00  0.83  0.00
  GQ41                    1.00   0.02  0.00  0.00  0.98  0.00  0.00  0.00  0.63  0.00
  GQ42                    1.00   0.02  0.00  0.00  0.98  0.00  0.00  0.00  0.58  0.00
  GQ43                    1.00   0.02  0.00  0.00  0.27  0.71  0.00  0.00  0.78  0.00
  GQ44                    1.00   0.02  0.00  0.00  0.98  0.00  0.00  0.00  0.49  0.00
  GQ45                    1.00   0.02  0.00  0.00  0.45  0.53  0.00  0.00  0.88  0.00
  GQ46                    1.00   0.02  0.00  0.00  0.64  0.35  0.00  0.00  0.52  0.00
  GQ47                    1.00   0.02  0.00  0.00  0.98  0.00  0.00  0.00  0.94  0.00
  GQ48                    1.00   0.02  0.00  0.00  0.98  0.00  0.00  0.00  0.94  0.00
  GQ49                    1.00   0.02  0.00  0.00  0.50  0.49  0.00  0.00  0.94  0.00
  GQ50                    1.00   0.02  0.00  0.00  0.98  0.00  0.00  0.00  0.94  0.00
  GQ51                    1.00   0.02  0.00  0.00  0.15  0.84  0.00  0.00  0.68  0.00
  GQ52                    1.00   0.02  0.00  0.00  0.98  0.00  0.00  0.00  0.82  0.00
  GQ53                    1.00   0.02  0.00  0.00  0.98  0.00  0.00  0.00  0.58  0.00
  GQ54                    1.00   0.02  0.00  0.00  0.81  0.17  0.00  0.00  0.94  0.00
  GQ55                    1.00   0.02  0.00  0.00  0.86  0.12  0.00  0.00  0.94  0.00
  GQ56                    1.00   0.02  0.00  0.00  0.49  0.50  0.00  0.00  0.58  0.00
  GQ57                    1.00   0.02  0.00  0.00  0.98  0.00  0.00  0.00  0.89  0.00
  GQ58                    1.00   0.02  0.00  0.00  0.72  0.27  0.00  0.00  0.90  0.00
  GQ59                    1.00   0.02  0.00  0.00  0.98  0.00  0.00  0.00  0.58  0.00
  GQ60                    1.00   0.02  0.00  0.00  0.98  0.00  0.00  0.00  0.16  0.00
  GQ61                    1.00   0.02  0.00  0.00  0.98  0.00  0.00  0.00  0.94  0.00
  GQ62                    1.00   0.02  0.00  0.00  0.98  0.00  0.00  0.00  0.94  0.00
  GQ63                    1.00   0.02  0.00  0.00  0.98  0.01  0.00  0.00  0.94  0.00
  GQ64                    1.00   0.02  0.00  0.00  0.15  0.84  0.00  0.00  0.94  0.00
  GQ65                    1.00   0.02  0.00  0.00  0.98  0.00  0.00  0.00  0.94  0.00
  GQ66                    1.00   0.02  0.00  0.00  0.98  0.00  0.00  0.00  0.94  0.00
  GQ67                    1.00   0.02  0.00  0.00  0.98  0.00  0.00  0.00  0.03  0.00
  GQ68                    1.00   0.02  0.00  0.00  0.98  0.00  0.00  0.00  0.89  0.00
  GQ69                    1.00   0.02  0.00  0.00  0.63  0.35  0.00  0.00  0.90  0.00
  GQ70                    1.00   0.02  0.00  0.00  0.00  0.98  0.00  0.00  0.00  0.00
  GQ71                    1.00   0.02  0.00  0.00  0.00  0.98  0.00  0.00  0.18  0.00
  GQ72                    1.00   0.02  0.00  0.00  0.00  0.98  0.00  0.00  0.19  0.00
  GQ73                    1.00   0.02  0.00  0.00  0.00  0.98  0.00  0.00  0.01  0.00
  GQ74                    1.00   0.02  0.00  0.00  0.97  0.02  0.00  0.00  0.94  0.00
  GQ75                    1.00   0.02  0.00  0.00  0.98  0.00  0.00  0.00  0.94  0.00
  GQ76                    1.00   0.02  0.00  0.00  0.06  0.93  0.00  0.00  0.16  0.00
  GQ77                    1.00   0.02  0.98  0.00  0.00  0.00  0.00  0.00  0.00  0.00
  GQ78                    1.00   0.02  0.00  0.00  0.74  0.25  0.00  0.00  0.64  0.00
  GQ79                    1.00   0.02  0.00  0.00  0.98  0.00  0.00  0.00  0.05  0.00
  GQ80                    1.00   0.02  0.00  0.00  0.98  0.00  0.00  0.00  0.56  0.00
  GQ81                    1.00   0.02  0.00  0.00  0.98  0.00  0.00  0.00  0.05  0.00
  GQ82                    1.00   0.02  0.00  0.00  0.73  0.25  0.00  0.00  0.91  0.00
  GQ83                    1.00   0.02  0.00  0.00  0.00  0.98  0.00  0.00  0.94  0.00
  GQ84                    1.00   0.02  0.00  0.00  0.16  0.82  0.00  0.00  0.83  0.00
  GQ85                    1.00   0.02  0.00  0.00  0.98  0.00  0.00  0.00  0.58  0.00
  GQ86                    1.00   0.02  0.00  0.00  0.98  0.00  0.00  0.00  0.94  0.00
  GQ87                    1.00   0.02  0.00  0.00  0.98  0.00  0.00  0.00  0.94  0.00
  GQ88                    1.00   0.02  0.00  0.00  0.85  0.13  0.00  0.00  0.90  0.00
  GQ89                    1.00   0.02  0.00  0.00  0.98  0.00  0.00  0.00  0.88  0.00
  GQ90                    1.00   0.02  0.00  0.00  0.86  0.13  0.00  0.00  0.90  0.00
  GQ91                    1.00   0.02  0.00  0.00  0.98  0.00  0.00  0.00  0.88  0.00
  GQ92                    1.00   0.02  0.00  0.00  0.93  0.05  0.00  0.00  0.01  0.00
  GQ93                    1.00   0.02  0.00  0.00  0.98  0.00  0.00  0.00  0.81  0.00
  GQ94                    1.00   0.02  0.00  0.00  0.60  0.39  0.00  0.00  0.01  0.00
  GQ95                    1.00   0.02  0.00  0.00  0.98  0.00  0.00  0.00  0.94  0.00
  GQ96                    1.00   0.02  0.00  0.00  0.98  0.00  0.00  0.00  0.37  0.00
  GQ97                    1.00   0.02  0.00  0.00  0.11  0.88  0.00  0.00  0.52  0.00
  GQ98                    1.00   0.02  0.00  0.00  0.98  0.00  0.00  0.00  0.60  0.00
  GQ99                    1.00   0.02  0.00  0.00  0.98  0.00  0.00  0.00  0.94  0.00
  GQ100                   1.00   0.02  0.00  0.00  0.00  0.98  0.00  0.00  0.00  0.00
  GQ101                   1.00   0.02  0.00  0.00  0.86  0.12  0.00  0.00  0.94  0.00
  GQ102                   1.00   0.02  0.00  0.00  0.73  0.25  0.00  0.00  0.94  0.00
  GQ103                   1.00   0.02  0.00  0.00  0.98  0.00  0.00  0.00  0.81  0.00
  GQ104                   1.00   0.02  0.00  0.00  0.56  0.43  0.00  0.00  0.87  0.00
  GQ105                   1.00   0.02  0.00  0.00  0.98  0.00  0.00  0.00  0.04  0.00
  GQ106                   1.00   0.02  0.00  0.00  0.86  0.12  0.00  0.00  0.94  0.00
  GQ107                   1.00   0.02  0.00  0.00  0.64  0.34  0.00  0.00  0.80  0.00
  GQ108                   1.00   0.02  0.00  0.00  0.98  0.00  0.00  0.00  0.08  0.00
  GQ109                   1.00   0.02  0.00  0.00  0.97  0.01  0.00  0.00  0.88  0.00
  GQ110                   1.00   0.02  0.00  0.00  0.98  0.00  0.00  0.00  0.94  0.00
  GQ111                   1.00   0.02  0.00  0.00  0.86  0.12  0.00  0.00  0.88  0.00
  GQ112                   1.00   0.02  0.00  0.00  0.00  0.98  0.00  0.00  0.93  0.00
  GQ113                   1.00   0.02  0.00  0.00  0.00  0.98  0.00  0.00  0.93  0.00
  GQ114                   1.00   0.02  0.00  0.00  0.98  0.00  0.00  0.00  0.06  0.00
  GQ115                   1.00   0.02  0.00  0.00  0.98  0.00  0.00  0.00  0.94  0.00
  GQ116                   1.00   0.02  0.00  0.00  0.98  0.00  0.00  0.00  0.94  0.00
  GQ117                   1.00   0.02  0.00  0.00  0.00  0.98  0.00  0.00  0.00  0.00
  GQ118                   1.00   0.02  0.00  0.00  0.31  0.67  0.00  0.00  0.94  0.00
  GQ119                   1.00   0.02  0.00  0.00  0.71  0.27  0.00  0.00  0.61  0.00
  GQ120                   1.00   0.02  0.04  0.00  0.95  0.00  0.00  0.00  0.00  0.00
  GQ121                   1.00   0.02  0.00  0.00  0.98  0.00  0.00  0.00  0.06  0.00
  GQ122                   1.00   0.02  0.00  0.00  0.84  0.14  0.00  0.00  0.94  0.00
  GQ123                   1.00   0.02  0.00  0.00  0.83  0.15  0.00  0.00  0.94  0.00
  GQ124                   1.00   0.02  0.00  0.00  0.98  0.00  0.00  0.00  0.94  0.00
  GQ125                   1.00   0.02  0.00  0.00  0.98  0.01  0.00  0.00  0.87  0.00
  GQ126                   1.00   0.02  0.00  0.00  0.77  0.21  0.00  0.00  0.88  0.00
  GQ127                   1.00   0.02  0.00  0.00  0.98  0.00  0.00  0.00  0.58  0.00
  GQ128                   1.00   0.02  0.00  0.00  0.30  0.69  0.00  0.00  0.85  0.00
  GQ129                   1.00   0.02  0.00  0.00  0.98  0.00  0.00  0.00  0.54  0.00
  GQ130                   1.00   0.02  0.00  0.00  0.88  0.10  0.00  0.00  0.54  0.00
  GQ131                   1.00   0.02  0.00  0.00  0.76  0.23  0.00  0.00  0.65  0.00
  
  
  *************************
  Conduit Surcharge Summary
  *************************
  
  ----------------------------------------------------------------------------
                                                           Hours        Hours 
                         --------- Hours Full --------   Above Full   Capacity
  Conduit                Both Ends  Upstream  Dnstream   Normal Flow   Limited
  ----------------------------------------------------------------------------
  GQ1                         0.01      1.06      0.01      0.01         0.01
  GQ2                         0.01      0.01      0.47      0.01         0.01
  GQ4                         6.35      6.35     14.91      0.01         0.01
  GQ5                         2.19      2.19     14.73      0.01         0.01
  GQ6                         0.01      0.01      2.19      0.01         0.01
  GQ7                         5.48      5.48      6.02      0.01         0.01
  GQ8                         0.92      0.92      5.48      0.01         0.01
  GQ9                         0.92      0.92     15.21      0.01         0.01
  GQ10                        6.60      6.60     15.29      0.08         0.01
  GQ11                        0.01      0.01      0.13      0.01         0.01
  GQ12                        0.01      0.01     10.88      0.01         0.01
  GQ13                        0.01      0.01      6.00      0.01         0.01
  GQ15                        0.01      0.76      0.01      0.01         0.01
  GQ16                        0.01      1.04      0.01      0.01         0.01
  GQ18                        0.01      0.01      9.86     10.45         0.01
  GQ20                        0.01      0.01      1.86      0.01         0.01
  GQ21                        0.01      0.01      1.86      0.01         0.01
  GQ22                        0.01      0.01      0.92      0.01         0.01
  GQ23                        0.91      0.91      1.07      0.01         0.01
  GQ24                        1.14      1.14     15.08      0.01         0.01
  GQ25                        0.01      1.07      0.01      1.06         0.01
  GQ26                        0.01      0.01      1.21      0.01         0.01
  GQ27                        1.21      1.21     13.80      0.01         0.01
  GQ28                        0.01      0.01     14.82      0.01         0.01
  GQ29                       13.56     13.56     14.82      0.01         0.01
  GQ30                       13.80     13.80     14.97      0.01         0.01
  GQ31                        1.07      1.07     15.34      0.01         0.01
  GQ32                        0.98      2.58      0.98      1.45         0.10
  GQ33                        2.58      2.58     15.34      0.01         0.01
  GQ34                        0.13      0.13      2.58      0.01         0.01
  GQ35                        2.34      2.34      2.58      0.11         0.01
  GQ36                        2.30      2.34      2.30      1.66         1.48
  GQ37                        0.98      0.98     15.17      0.01         0.01
  GQ38                        0.01      0.01     15.17      0.01         0.01
  GQ39                        1.96      1.96     10.88      0.01         0.01
  GQ40                        0.98      0.98      1.96      0.01         0.01
  GQ41                        1.04      1.04     14.74      0.01         0.01
  GQ42                        5.45      5.45     14.88      0.01         0.01
  GQ43                        2.56      2.56      5.45      0.10         0.01
  GQ44                        6.30      6.30      9.86      0.01         0.01
  GQ45                        0.01      0.01      5.79      0.01         0.01
  GQ46                        5.79      5.79      6.30      0.01         0.01
  GQ47                        0.01      0.01     14.90      0.01         0.01
  GQ48                        0.01      0.01     15.03      0.01         0.01
  GQ49                        0.01      0.01     15.03      0.01         0.01
  GQ50                        0.01      0.01      1.89      0.01         0.01
  GQ51                        1.06      1.89      1.06      2.06         1.06
  GQ52                        1.01      1.01     13.56      0.93         0.92
  GQ53                        5.18      5.18     14.95      0.01         0.01
  GQ54                        0.01      0.01     15.05      0.01         0.01
  GQ55                        0.01      0.01     15.05      0.01         0.01
  GQ56                        5.01      5.01      5.48      0.96         0.90
  GQ57                        0.01      0.01      5.01      0.01         0.01
  GQ58                        0.01      0.01     14.43      0.01         0.01
  GQ59                        5.45      5.45     14.43      0.01         0.01
  GQ60                        2.16      2.16      5.79      0.01         0.01
  GQ61                        0.01      0.01     10.80      0.01         0.01
  GQ62                        0.01      0.01     11.26      0.01         0.01
  GQ63                        0.01      0.01     12.60      0.01         0.01
  GQ65                        0.01      0.01      0.87      0.01         0.01
  GQ66                        0.01      0.01     11.88      0.01         0.01
  GQ67                       10.87     10.87     11.23      0.01         0.01
  GQ68                        0.01      0.01     13.42      0.01         0.01
  GQ69                        0.01      0.01     14.82      0.74         0.01
  GQ74                        0.01      0.01      0.47      0.01         0.01
  GQ75                        0.01      0.01     13.30      0.01         0.01
  GQ76                        0.47      0.47      0.82      0.82         0.47
  GQ78                        2.50      2.50     15.13      0.01         0.01
  GQ79                        0.01      0.01     15.13      0.01         0.01
  GQ80                        2.50      2.50     10.38      0.01         0.01
  GQ81                       10.38     10.38     10.88      9.92         3.56
  GQ82                        0.01      0.01     10.88      0.01         0.01
  GQ83                        0.01      0.01      1.14      0.01         0.01
  GQ84                        1.11      1.11      5.60      0.61         0.01
  GQ85                        1.11      1.11     15.38      0.01         0.01
  GQ86                        0.01      0.01     14.88      0.01         0.01
  GQ87                        0.01      0.01     14.88      0.01         0.01
  GQ88                        0.01      0.01     14.98      0.01         0.01
  GQ89                        0.60      0.60     13.75      0.01         0.01
  GQ90                        0.01      0.01     13.01      0.01         0.01
  GQ91                        0.65      0.65     14.41      0.01         0.01
  GQ92                        1.71      1.71      1.90      1.13         1.13
  GQ93                        1.90      1.90      2.47      0.01         0.01
  GQ94                        2.47      2.47      2.56      2.39         2.31
  GQ95                        0.01      0.01     15.05      0.01         0.01
  GQ96                        1.68      1.68      1.71      1.70         1.60
  GQ97                        0.48      0.81      0.48      0.92         0.48
  GQ98                        0.48      0.48     14.79      0.01         0.01
  GQ99                        0.01      0.01     11.51      0.01         0.01
  GQ100                       0.01      1.03      0.01      0.98         0.01
  GQ101                       0.01      0.01     14.36      0.01         0.01
  GQ102                       0.01      0.01     14.78      0.01         0.01
  GQ103                       1.08      1.08     15.01      0.01         0.01
  GQ104                       0.98      0.98     15.01      0.04         0.01
  GQ105                      14.69     14.69     14.78     10.88         0.01
  GQ106                       0.01      0.01     14.81      0.01         0.01
  GQ107                       1.96      1.96     14.81      0.01         0.01
  GQ108                       9.99      9.99     14.69      0.01         0.01
  GQ109                       0.01      0.01      1.96      0.01         0.01
  GQ110                       0.01      0.01     13.30      0.01         0.01
  GQ111                       0.01      0.01     14.37      0.01         0.01
  GQ114                       0.01      0.01     15.01      0.01         0.01
  GQ116                       0.01      0.01     14.83      0.01         0.01
  GQ117                       0.01      0.82      0.01      0.01         0.01
  GQ118                       0.01      0.01      0.82      0.01         0.01
  GQ119                       2.81      2.81     15.07      0.01         0.01
  GQ120                       0.01      0.01     14.99      0.01         0.01
  GQ121                      14.77     14.77     15.07      0.01         0.01
  GQ122                       0.01      0.01     14.77      0.01         0.01
  GQ123                       0.01      0.01     14.82      0.01         0.01
  GQ124                       0.01      0.01      0.83      0.01         0.01
  GQ125                       0.82      0.82     14.41      0.01         0.01
  GQ126                       0.01      0.01     14.36      0.01         0.01
  GQ127                       2.56      2.56      2.81      0.06         0.01
  GQ128                       0.01      0.01      2.38      0.01         0.01
  GQ129                       6.02      6.02     15.08      0.01         0.01
  GQ130                       6.19      6.19     15.49      0.01         0.01
  GQ131                       1.89      1.89     15.36      0.01         0.01
  

  Analysis begun on:  Sat Mar 25 16:23:03 2023
  Analysis ended on:  Sat Mar 25 16:23:08 2023
  Total elapsed time: 00:00:05