
  OWA STORM WATER MANAGEMENT MODEL - VERSION v5.1.14 (OWA 2022-07-31)
  --------------------------------------------------------------

  INP file created by DSDAConvertToSwmmTools 
  version 0.0.1 EcoVista 
  Title/Notes: 
  
  
  *********************************************************
  NOTE: The summary statistics displayed in this report are
  based on results found at every computational time step,  
  not just on results from each reporting time step.
  *********************************************************
  
  ****************
  Analysis Options
  ****************
  Flow Units ............... CMS
  Process Models:
    Rainfall/Runoff ........ YES
    RDII ................... NO
    Snowmelt ............... NO
    Groundwater ............ NO
    Flow Routing ........... YES
    Ponding Allowed ........ NO
    Water Quality .......... NO
  Infiltration Method ...... GREEN_AMPT
  Flow Routing Method ...... DYNWAVE
  Surcharge Method ......... EXTRAN
  Starting Date ............ 07/15/2020 00:00:00
  Ending Date .............. 07/16/2020 01:00:00
  Antecedent Dry Days ...... 0.0
  Report Time Step ......... 00:30:00
  Wet Time Step ............ 00:05:00
  Dry Time Step ............ 01:00:00
  Routing Time Step ........ 30.00 sec
  Variable Time Step ....... YES
  Maximum Trials ........... 8
  Number of Threads ........ 1
  Head Tolerance ........... 0.001500 m
  
  
  **************************        Volume         Depth
  Runoff Quantity Continuity     hectare-m            mm
  **************************     ---------       -------
  Total Precipitation ......       166.255        41.600
  Evaporation Loss .........         9.047         2.264
  Infiltration Loss ........        44.431        11.117
  Surface Runoff ...........       105.010        26.275
  Final Storage ............         7.885         1.973
  Continuity Error (%) .....        -0.071
  
  
  **************************        Volume        Volume
  Flow Routing Continuity        hectare-m      10^6 ltr
  **************************     ---------     ---------
  Dry Weather Inflow .......         0.000         0.000
  Wet Weather Inflow .......       104.904      1049.047
  Groundwater Inflow .......         0.000         0.000
  RDII Inflow ..............         0.000         0.000
  External Inflow ..........         0.000         0.000
  External Outflow .........        10.632       106.316
  Flooding Loss ............        92.701       927.023
  Evaporation Loss .........         0.000         0.000
  Exfiltration Loss ........         0.000         0.000
  Initial Stored Volume ....         0.000         0.000
  Final Stored Volume ......         1.388        13.879
  Continuity Error (%) .....         0.174
  
  
  *************************
  Highest Continuity Errors
  *************************
  Node jd51 (5.19%)
  Node jd64 (4.22%)
  Node jd59 (4.17%)
  Node jd31 (3.84%)
  Node jd55 (3.83%)
  
  
  ***************************
  Time-Step Critical Elements
  ***************************
  Link GQ73 (98.53%)
  
  
  ********************************
  Highest Flow Instability Indexes
  ********************************
  Link GQ67 (13)
  Link GQ29 (7)
  Link GQ121 (4)
  Link GQ114 (2)
  Link GQ44 (2)
  
  
  *************************
  Routing Time Step Summary
  *************************
  Minimum Time Step           :     0.27 sec
  Average Time Step           :     9.21 sec
  Maximum Time Step           :    30.00 sec
  Percent in Steady State     :     0.00
  Average Iterations per Step :     2.93
  Percent Not Converging      :     6.14
  
  
  ***************************
  Subcatchment Runoff Summary
  ***************************
  
  ------------------------------------------------------------------------------------------------------------------------------
                            Total      Total      Total      Total     Imperv       Perv      Total       Total     Peak  Runoff
                           Precip      Runon       Evap      Infil     Runoff     Runoff     Runoff      Runoff   Runoff   Coeff
  Subcatchment                 mm         mm         mm         mm         mm         mm         mm    10^6 ltr      CMS
  ------------------------------------------------------------------------------------------------------------------------------
  1                         41.60       0.00       1.36      23.31      15.91       0.00      15.91        6.30     0.25   0.382
  2                         41.60       0.00       2.43       8.85      28.05       0.00      28.05       25.37     1.00   0.674
  3                         41.60       0.00       2.53       7.59      29.36       0.00      29.36       11.75     0.47   0.706
  4                         41.60       0.00       2.61       6.52      30.42       0.00      30.42        2.55     0.10   0.731
  5                         41.60       0.00       2.30      10.60      26.89       0.00      26.89        3.33     0.13   0.646
  6                         41.60       0.00       2.20      11.92      25.79       0.00      25.79        2.40     0.10   0.620
  7                         41.60       0.00       2.30      10.64      26.62       0.00      26.62       11.61     0.46   0.640
  8                         41.60       0.00       2.92       2.33      33.86       0.00      33.86        4.71     0.19   0.814
  9                         41.60       0.00       3.00       1.16      34.91       0.00      34.91        4.09     0.16   0.839
  10                        41.60       0.00       2.59       6.77      30.09       0.00      30.09        6.78     0.27   0.723
  11                        41.60       0.00       2.79       3.98      32.40       0.00      32.40       16.06     0.64   0.779
  12                        41.60       0.00       2.20      11.96      25.61       0.00      25.61       12.50     0.50   0.616
  13                        41.60       0.00       2.76       4.49      31.98       0.00      31.98       14.47     0.58   0.769
  14                        41.60       0.00       2.75       4.54      32.04       0.00      32.04        6.05     0.24   0.770
  15                        41.60       0.00       2.55       7.31      29.59       0.00      29.59       10.00     0.40   0.711
  16                        41.60       0.00       2.64       6.04      30.65       0.00      30.65        9.05     0.36   0.737
  17                        41.60       0.00       2.47       8.30      28.74       0.00      28.74       12.03     0.48   0.691
  18                        41.60       0.00       2.85       3.27      33.00       0.00      33.00       13.63     0.54   0.793
  19                        41.60       0.00       2.84       3.42      32.85       0.00      32.85        7.39     0.29   0.790
  20                        41.60       0.00       2.82       3.65      32.51       0.00      32.51       17.45     0.69   0.781
  21                        41.60       0.00       3.00       1.22      34.75       0.00      34.75       10.90     0.43   0.835
  22                        41.60       0.00       2.94       1.96      34.08       0.00      34.08        4.19     0.17   0.819
  23                        41.60       0.00       2.71       5.09      31.39       0.00      31.39       17.97     0.71   0.755
  24                        41.60       0.00       2.62       6.35      30.29       0.00      30.29        5.37     0.21   0.728
  25                        41.60       0.00       2.80       3.90      32.55       0.00      32.55        6.59     0.26   0.783
  26                        41.60       0.00       2.38       9.49      27.54       0.00      27.54        9.67     0.38   0.662
  27                        41.60       0.00       2.86       3.11      32.97       0.00      32.97       13.93     0.55   0.793
  28                        41.60       0.00       2.92       2.29      33.75       0.00      33.75       15.96     0.63   0.811
  29                        41.60       0.00       2.61       6.46      30.40       0.00      30.40        7.10     0.28   0.731
  30                        41.60       0.00       2.98       1.40      34.82       0.00      34.82        2.50     0.10   0.837
  31                        41.60       0.00       3.02       0.87      35.09       0.00      35.09        7.73     0.31   0.843
  32                        41.60       0.00       2.95       1.85      34.21       0.00      34.21       14.78     0.59   0.822
  33                        41.60       0.00       2.99       1.35      34.61       0.00      34.61       12.19     0.49   0.832
  34                        41.60       0.00       2.78       4.21      32.22       0.00      32.22        9.44     0.38   0.774
  35                        41.60       0.00       2.86       3.14      33.12       0.00      33.12       13.74     0.55   0.796
  36                        41.60       0.00       2.35       9.91      27.40       0.00      27.40       10.78     0.43   0.659
  37                        41.60       0.00       2.92       2.25      33.88       0.00      33.88        7.52     0.30   0.814
  38                        41.60       0.00       2.74       4.71      31.81       0.00      31.81       12.13     0.48   0.765
  39                        41.60       0.00       2.47       8.27      28.79       0.00      28.79       12.16     0.48   0.692
  40                        41.60       0.00       2.76       4.50      31.98       0.00      31.98        7.31     0.29   0.769
  41                        41.60       0.00       2.82       3.66      32.78       0.00      32.78        6.46     0.26   0.788
  42                        41.60       0.00       2.81       3.70      32.51       0.00      32.51        8.03     0.32   0.782
  43                        41.60       0.00       2.37       9.73      27.42       0.00      27.42       21.68     0.86   0.659
  44                        41.60       0.00       2.53       7.58      29.24       0.00      29.24       14.13     0.56   0.703
  45                        41.60       0.00       2.37       9.65      27.54       0.00      27.54       19.92     0.79   0.662
  46                        41.60       0.00       2.29      10.75      26.73       0.00      26.73       13.36     0.53   0.643
  47                        41.60       0.00       2.41       9.20      27.92       0.00      27.92       32.55     1.29   0.671
  48                        41.60       0.00       2.88       2.88      33.15       0.00      33.15       19.24     0.76   0.797
  49                        41.60       0.00       2.63       6.16      30.36       0.00      30.36       20.55     0.81   0.730
  50                        41.60       0.00       2.92       2.34      33.47       0.00      33.47       13.15     0.52   0.805
  51                        41.60       0.00       2.79       4.04      32.07       0.00      32.07        6.00     0.24   0.771
  52                        41.60       0.00       1.36      23.34      15.93       0.00      15.93       16.34     0.65   0.383
  53                        41.60       0.00       1.96      15.15      22.96       0.00      22.96       24.46     0.97   0.552
  54                        41.60       0.00       2.42       8.96      28.19       0.00      28.19        6.87     0.27   0.678
  55                        41.60       0.00       1.39      22.91      16.29       0.00      16.29       12.85     0.51   0.392
  56                        41.60       0.00       0.52      34.55       6.23       0.00       6.23        5.08     0.20   0.150
  57                        41.60       0.00       2.75       4.63      31.67       0.00      31.67       26.31     1.04   0.761
  58                        41.60       0.00       2.54       7.35      29.56       0.00      29.56        4.87     0.19   0.711
  59                        41.60       0.00       2.48       8.17      28.99       0.00      28.99        3.69     0.15   0.697
  60                        41.60       0.00       0.93      29.07      10.99       0.00      10.99        3.15     0.12   0.264
  61                        41.60       0.00       1.45      22.11      16.88       0.00      16.88        6.36     0.25   0.406
  62                        41.60       0.00       2.01      14.47      23.39       0.00      23.39       27.41     1.08   0.562
  63                        41.60       0.00       2.75       4.59      31.61       0.00      31.61       61.14     2.41   0.760
  64                        41.60       0.00       2.05      13.99      23.93       0.00      23.93        5.14     0.20   0.575
  65                        41.60       0.00       2.79       4.06      32.09       0.00      32.09       21.58     0.85   0.771
  66                        41.60       0.00       2.20      12.03      25.43       0.00      25.43        6.48     0.26   0.611
  67                        41.60       0.00       2.05      13.97      24.00       0.00      24.00        7.76     0.31   0.577
  68                        41.60       0.00       2.46       8.45      28.66       0.00      28.66        3.19     0.13   0.689
  69                        41.60       0.00       1.44      22.14      17.04       0.00      17.04        5.45     0.21   0.410
  70                        41.60       0.00       2.03      14.22      23.65       0.00      23.65       19.46     0.77   0.568
  71                        41.60       0.00       2.51       7.78      29.23       0.00      29.23        3.59     0.14   0.703
  72                        41.60       0.00       2.65       5.94      30.81       0.00      30.81        3.84     0.15   0.741
  73                        41.60       0.00       2.40       9.29      28.01       0.00      28.01        4.65     0.19   0.673
  74                        41.60       0.00       2.29      10.80      26.69       0.00      26.69        5.74     0.23   0.641
  75                        41.60       0.00       2.54       7.37      29.59       0.00      29.59        4.26     0.17   0.711
  76                        41.60       0.00       2.67       5.59      31.15       0.00      31.15        3.02     0.12   0.749
  77                        41.60       0.00       2.85       3.20      33.12       0.00      33.12        3.58     0.14   0.796
  78                        41.60       0.00       2.75       4.55      31.94       0.00      31.94        3.51     0.14   0.768
  79                        41.60       0.00       1.21      25.35      14.20       0.00      14.20       15.06     0.59   0.341
  80                        41.60       0.00       2.27      10.98      26.36       0.00      26.36       16.50     0.66   0.634
  81                        41.60       0.00       2.31      10.49      26.76       0.00      26.76       11.66     0.46   0.643
  82                        41.60       0.00       2.21      11.81      25.64       0.00      25.64       23.51     0.93   0.616
  83                        41.60       0.00       2.77       4.36      32.17       0.00      32.17        3.93     0.16   0.773
  84                        41.60       0.00       2.61       6.46      30.31       0.00      30.31        3.62     0.14   0.729
  85                        41.60       0.00       3.07       0.32      35.67       0.00      35.67        3.32     0.13   0.857
  86                        41.60       0.00       2.83       3.51      32.86       0.00      32.86        4.84     0.19   0.790
  87                        41.60       0.00       3.02       0.89      35.03       0.00      35.03        4.61     0.18   0.842
  88                        41.60       0.00       2.70       5.19      31.47       0.00      31.47        3.01     0.12   0.757
  89                        41.60       0.00       2.84       3.34      33.03       0.00      33.03        6.36     0.25   0.794
  90                        41.60       0.00       3.09       0.01      36.01       0.00      36.01        0.41     0.02   0.866
  91                        41.60       0.00       2.57       6.97      29.68       0.00      29.68        6.47     0.26   0.714
  92                        41.60       0.00       2.85       3.24      33.10       0.00      33.10        4.14     0.16   0.796
  93                        41.60       0.00       2.32      10.33      26.99       0.00      26.99       13.81     0.55   0.649
  94                        41.60       0.00       2.09      13.48      24.51       0.00      24.51        1.72     0.07   0.589
  95                        41.60       0.00       3.09       0.05      35.89       0.00      35.89        0.78     0.03   0.863
  96                        41.60       0.00       2.49       8.06      29.02       0.00      29.02        3.55     0.14   0.698
  97                        41.60       0.00       3.02       0.88      35.13       0.00      35.13        3.49     0.14   0.844
  98                        41.60       0.00       2.51       7.86      29.21       0.00      29.21        3.60     0.14   0.702
  99                        41.60       0.00       1.24      24.89      14.63       0.00      14.63        5.43     0.21   0.352
  100                       41.60       0.00       1.38      23.02      16.26       0.00      16.26        4.17     0.16   0.391
  101                       41.60       0.00       1.41      22.57      16.61       0.00      16.61        8.14     0.32   0.399
  102                       41.60       0.00       2.30      10.58      26.81       0.00      26.81        6.54     0.26   0.645
  103                       41.60       0.00       0.77      31.23       9.14       0.00       9.14        3.32     0.13   0.220
  104                       41.60       0.00       0.52      34.58       6.17       0.00       6.17        5.98     0.23   0.148
  105                       41.60       0.00       2.54       7.39      29.61       0.00      29.61        3.87     0.15   0.712
  106                       41.60       0.00       1.38      23.07      16.18       0.00      16.18        3.95     0.16   0.389
  
  
  ******************
  Node Depth Summary
  ******************
  
  ---------------------------------------------------------------------------------
                                 Average  Maximum  Maximum  Time of Max    Reported
                                   Depth    Depth      HGL   Occurrence   Max Depth
  Node                 Type       Meters   Meters   Meters  days hr:min      Meters
  ---------------------------------------------------------------------------------
  jd1                  JUNCTION     0.08     0.14   273.14     0  22:00        0.14
  jd2                  JUNCTION     0.19     0.37   267.37     0  22:00        0.37
  jd3                  JUNCTION     2.91     3.00   266.00     0  01:49        3.00
  jd4                  JUNCTION     0.50     3.00   270.00     0  21:12        3.00
  jd5                  JUNCTION     0.05     0.10   274.10     0  22:00        0.10
  jd6                  JUNCTION     0.07     0.12   275.12     0  22:00        0.12
  jd7                  JUNCTION     0.24     0.41   264.51     0  22:00        0.41
  jd8                  JUNCTION     1.21     3.00   267.00     0  02:08        3.00
  jd9                  JUNCTION     0.70     3.00   268.00     0  21:21        3.00
  jd10                 JUNCTION     2.92     3.00   273.00     0  01:43        3.00
  jd11                 JUNCTION     0.06     0.11   282.11     0  22:00        0.11
  jd12                 JUNCTION     2.92     3.00   272.00     0  01:40        3.00
  jd13                 JUNCTION     0.07     0.13   289.13     0  22:00        0.13
  jd14                 JUNCTION     0.15     0.29   280.29     0  22:00        0.29
  jd15                 JUNCTION     0.16     0.30   278.30     0  22:00        0.30
  jd16                 JUNCTION     0.18     0.33   274.33     0  22:00        0.33
  jd17                 JUNCTION     1.71     3.00   278.80     0  02:01        3.00
  jd18                 JUNCTION     0.15     0.31   279.31     0  22:00        0.31
  jd19                 JUNCTION     0.40     3.00   270.00     0  21:21        2.29
  jd20                 JUNCTION     0.15     0.22   273.22     0  22:00        0.22
  jd21                 JUNCTION     2.90     3.00   273.00     0  01:48        3.00
  jd22                 JUNCTION     1.18     2.30   274.30     0  22:00        2.30
  jd23                 JUNCTION     0.13     0.25   278.25     0  22:00        0.25
  jd24                 JUNCTION     0.08     0.15   285.15     0  22:00        0.15
  jd25                 JUNCTION     0.14     0.26   279.26     0  22:00        0.26
  jd26                 JUNCTION     0.15     0.29   285.29     0  22:00        0.29
  jd27                 JUNCTION     0.13     0.23   291.23     0  22:00        0.23
  jd28                 JUNCTION     2.93     3.00   290.00     0  01:35        3.00
  jd29                 JUNCTION     0.06     0.11   299.11     0  22:00        0.11
  jd30                 JUNCTION     0.08     0.14   290.14     0  22:00        0.14
  jd31                 JUNCTION     0.98     3.00   275.00     0  02:02        1.09
  jd32                 JUNCTION     2.92     3.00   275.00     0  01:39        3.00
  jd33                 JUNCTION     0.11     0.21   289.21     0  22:00        0.21
  jd34                 JUNCTION     0.13     0.24   294.24     0  22:00        0.24
  jd35                 JUNCTION     2.94     3.00   292.00     0  01:28        3.00
  jd36                 JUNCTION     0.18     0.36   299.36     0  22:00        0.36
  jd37                 JUNCTION     0.18     0.35   303.35     0  22:00        0.35
  jd38                 JUNCTION     0.22     0.40   297.40     0  22:00        0.40
  jd39                 JUNCTION     2.91     3.00   297.00     0  01:49        3.00
  jd40                 JUNCTION     0.31     3.00   302.00     0  21:51        1.92
  jd41                 JUNCTION     2.87     3.00   296.00     0  02:13        3.00
  jd42                 JUNCTION     0.12     0.22   305.22     0  22:00        0.22
  jd43                 JUNCTION     0.29     0.61   297.61     0  22:00        0.61
  jd44                 JUNCTION     0.32     0.82   283.82     0  22:03        0.81
  jd45                 JUNCTION     2.91     3.00   282.00     0  01:45        3.00
  jd46                 JUNCTION     0.16     0.31   275.31     0  22:00        0.31
  jd47                 JUNCTION     0.10     0.17   315.17     0  22:00        0.17
  jd48                 JUNCTION     0.07     0.12   325.12     0  22:00        0.12
  jd49                 JUNCTION     0.15     0.28   289.28     0  22:00        0.28
  jd50                 JUNCTION     2.93     3.00   278.00     0  01:33        3.00
  jd51                 JUNCTION     2.86     3.00   313.00     0  02:18        3.00
  jd52                 JUNCTION     0.23     0.45   323.45     0  22:00        0.45
  jd53                 JUNCTION     0.23     0.46   322.46     0  22:00        0.46
  jd54                 JUNCTION     0.17     0.31   326.31     0  22:00        0.31
  jd55                 JUNCTION     1.23     1.57   323.57     0  22:00        1.57
  jd56                 JUNCTION     0.11     0.20   327.20     0  22:00        0.20
  jd59                 JUNCTION     2.84     3.00   320.80     0  02:24        3.00
  jd60                 JUNCTION     2.92     3.00   319.00     0  01:38        3.00
  jd61                 JUNCTION     0.09     0.16   329.16     0  22:00        0.16
  jd62                 JUNCTION     0.04     0.07   335.07     0  22:00        0.07
  jd63                 JUNCTION     0.04     0.08   324.08     0  22:00        0.08
  jd64                 JUNCTION     2.65     3.00   321.00     0  02:24        2.81
  jd65                 JUNCTION     1.01     3.00   307.00     0  02:17        3.00
  jd66                 JUNCTION     2.91     3.00   304.00     0  01:44        3.00
  jd69                 JUNCTION     0.14     0.25   333.25     0  22:00        0.25
  jd79                 JUNCTION     2.74     3.00   274.00     0  01:36        3.00
  jd80                 JUNCTION     1.77     3.00   279.00     0  01:51        3.00
  jd81                 JUNCTION     0.09     0.16   288.16     0  22:00        0.16
  jd83                 JUNCTION     2.94     3.00   323.00     0  01:25        3.00
  jd84                 JUNCTION     0.13     0.26   323.26     0  22:00        0.26
  jd85                 JUNCTION     2.92     3.00   324.00     0  01:42        3.00
  jd87                 JUNCTION     2.92     3.00   322.00     0  01:41        3.00
  jd89                 JUNCTION     0.09     0.17   324.17     0  22:00        0.17
  jd90                 JUNCTION     0.08     0.15   328.15     0  22:00        0.15
  jd92                 JUNCTION     0.08     0.16   326.16     0  22:00        0.16
  jd93                 JUNCTION     0.24     0.48   324.48     0  22:00        0.48
  jd94                 JUNCTION     0.15     0.28   326.48     0  22:00        0.28
  jd95                 JUNCTION     0.19     0.36   327.36     0  22:00        0.36
  jd96                 JUNCTION     2.93     3.00   308.00     0  01:36        3.00
  jd97                 JUNCTION     0.19     0.37   327.57     0  22:00        0.37
  jd98                 JUNCTION     0.11     0.21   329.21     0  22:00        0.21
  jd99                 JUNCTION     2.91     3.00   327.00     0  01:45        3.00
  jd101                JUNCTION     0.07     0.12   321.12     0  22:00        0.12
  jd102                JUNCTION     0.14     0.26   324.26     0  22:00        0.26
  jd103                JUNCTION     0.07     0.12   318.12     0  22:00        0.12
  jd106                JUNCTION     2.88     3.00   287.00     0  02:01        3.00
  jd107                JUNCTION     0.13     0.23   332.23     0  22:00        0.23
  jd108                JUNCTION     1.09     1.27   327.27     0  01:39        1.23
  jd109                JUNCTION     0.10     0.18   343.18     0  22:00        0.18
  jd110                JUNCTION     2.92     3.00   327.00     0  01:42        3.00
  jd111                JUNCTION     0.05     0.08   344.08     0  22:00        0.08
  jd112                JUNCTION     0.06     0.10   334.10     0  22:00        0.10
  jd113                JUNCTION     0.06     0.11   348.11     0  22:00        0.11
  jd114                JUNCTION     2.92     3.00   317.00     0  01:43        3.00
  jd117                JUNCTION     1.01     3.00   319.00     0  01:48        1.23
  jd118                JUNCTION     0.06     0.10   330.10     0  22:00        0.10
  jd120                JUNCTION     0.09     0.18   327.18     0  22:00        0.18
  jd121                JUNCTION     0.10     0.18   320.18     0  22:00        0.18
  jd122                JUNCTION     2.91     3.00   276.00     0  01:47        3.00
  jd123                JUNCTION     2.90     3.00   276.20     0  01:50        3.00
  jd124                JUNCTION     2.95     3.00   271.00     0  01:22        3.00
  jd125                JUNCTION     0.41     3.00   278.00     0  21:19        2.38
  jd126                JUNCTION     2.94     3.00   275.00     0  01:27        3.00
  jd135                JUNCTION     0.08     0.15   289.15     0  22:00        0.15
  jd136                JUNCTION     0.16     0.29   341.29     0  22:00        0.29
  psk1                 OUTFALL      0.06     0.10   279.10     0  22:00        0.10
  psk2                 OUTFALL      0.08     0.14   270.14     0  22:00        0.14
  psk3                 OUTFALL      0.18     0.33   271.33     0  22:00        0.33
  psk4                 OUTFALL      0.00     0.00   280.00     0  00:00        0.00
  psk5                 OUTFALL      0.08     0.14   263.14     0  22:00        0.14
  psk6                 OUTFALL      0.05     0.10   259.10     0  22:00        0.10
  psk7                 OUTFALL      0.24     0.41   262.41     0  22:00        0.41
  psk8                 OUTFALL      0.00     0.00   317.00     0  00:00        0.00
  
  
  *******************
  Node Inflow Summary
  *******************
  
  -------------------------------------------------------------------------------------------------
                                  Maximum  Maximum                  Lateral       Total        Flow
                                  Lateral    Total  Time of Max      Inflow      Inflow     Balance
                                   Inflow   Inflow   Occurrence      Volume      Volume       Error
  Node                 Type           CMS      CMS  days hr:min    10^6 ltr    10^6 ltr     Percent
  -------------------------------------------------------------------------------------------------
  jd1                  JUNCTION     0.249    0.405     0  22:00        6.29        10.4       0.169
  jd2                  JUNCTION     0.382    0.524     0  22:00        9.66        13.3       0.270
  jd3                  JUNCTION     0.460    1.493     0  22:00        11.6        40.2       1.004
  jd4                  JUNCTION     0.553    0.619     0  22:00        13.9        15.6       0.332
  jd5                  JUNCTION     0.163    0.284     0  22:00        4.08        7.24       0.074
  jd6                  JUNCTION     0.188    0.188     0  22:00        4.71        4.71       0.105
  jd7                  JUNCTION     0.095    1.477     0  22:00        2.39        44.7       0.134
  jd8                  JUNCTION     0.132    1.078     0  22:00        3.32        33.5       0.643
  jd9                  JUNCTION     0.102    0.959     0  22:00        2.55        30.3       0.197
  jd10                 JUNCTION     0.270    0.343     0  22:00        6.77        8.63       1.178
  jd11                 JUNCTION     0.398    0.398     0  22:00        9.99        9.99       0.131
  jd12                 JUNCTION     0.300    0.650     0  22:00        7.51        16.2       0.851
  jd13                 JUNCTION     0.543    0.543     0  22:00        13.6        13.6       0.101
  jd14                 JUNCTION     0.634    0.714     0  22:00        15.9        17.9       0.193
  jd15                 JUNCTION     0.263    0.570     0  22:00        6.58        14.3       0.521
  jd16                 JUNCTION     0.283    1.083     0  22:00        7.09          27       0.211
  jd17                 JUNCTION     0.589    1.451     0  22:00        14.8        46.4       1.662
  jd18                 JUNCTION     0.468    0.679     0  22:00        11.7          17       0.287
  jd19                 JUNCTION     0.435    0.857     0  22:00        10.9        27.8       0.169
  jd20                 JUNCTION     0.360    0.582     0  22:00        9.05        23.3       0.239
  jd21                 JUNCTION     0.167    1.436     0  22:00        4.19        38.4       0.880
  jd22                 JUNCTION     0.294    0.663     0  22:00        7.38        16.8       0.496
  jd23                 JUNCTION     0.291    0.807     0  22:00        7.31        20.1       0.163
  jd24                 JUNCTION     0.479    0.479     0  22:00          12          12       0.129
  jd25                 JUNCTION     0.376    0.544     0  22:00        9.43        13.6       0.216
  jd26                 JUNCTION     0.547    0.911     0  22:00        13.7        22.9       0.199
  jd27                 JUNCTION     0.561    0.934     0  22:00        14.1        23.5       0.186
  jd28                 JUNCTION     0.762    1.072     0  22:00        19.2        27.1       0.498
  jd29                 JUNCTION     0.308    0.308     0  22:00        7.73        7.73       0.073
  jd30                 JUNCTION     0.319    0.873     0  22:00        8.02        21.9       0.117
  jd31                 JUNCTION     0.213    0.720     0  02:02        5.37        11.6       3.994
  jd32                 JUNCTION     0.434    2.090     0  21:50        10.9          47       0.531
  jd33                 JUNCTION     0.428    0.712     0  22:00        10.8        17.9       0.113
  jd34                 JUNCTION     0.531    0.531     0  22:00        13.3        13.3       0.093
  jd35                 JUNCTION     0.484    1.688     0  22:00        12.1        42.6       0.307
  jd36                 JUNCTION     0.814    1.334     0  22:00        20.5        33.8       0.234
  jd37                 JUNCTION     0.858    0.858     0  22:00        21.7        21.7       0.136
  jd38                 JUNCTION     0.790    1.303     0  22:00        19.9        32.9       0.305
  jd39                 JUNCTION     0.549    2.495     0  22:00        13.8        62.6       0.827
  jd40                 JUNCTION     0.931    2.290     0  22:00        23.5        56.9       0.300
  jd41                 JUNCTION     0.655    2.790     0  22:00        16.5        69.6       3.151
  jd42                 JUNCTION     0.853    0.936     0  22:00        21.6        23.7       0.231
  jd43                 JUNCTION     0.969    1.703     0  22:00        24.4          42       0.342
  jd44                 JUNCTION     1.291    3.268     0  22:00        32.5        81.4       0.308
  jd45                 JUNCTION     0.518    2.125     0  22:00        13.1          52       0.626
  jd46                 JUNCTION     0.237    0.237     0  22:00        5.99        5.99       0.648
  jd47                 JUNCTION     0.773    0.773     0  22:00        19.4        19.4       0.079
  jd48                 JUNCTION     0.215    0.215     0  22:00        5.45        5.45       0.129
  jd49                 JUNCTION     1.042    1.042     0  22:00        26.3        26.3       0.181
  jd50                 JUNCTION     1.085    2.937     0  22:00        27.4        99.3       0.432
  jd51                 JUNCTION     0.228    1.050     0  22:00        5.74        26.4       5.477
  jd52                 JUNCTION     0.462    1.839     0  22:00        11.7        45.3       0.267
  jd53                 JUNCTION     0.256    1.423     0  22:00        6.47        35.5       0.165
  jd54                 JUNCTION     0.139    0.692     0  22:00        3.49        17.4       0.219
  jd55                 JUNCTION     0.254    0.822     0  22:00        6.36        20.5       3.981
  jd56                 JUNCTION     0.154    0.451     0  22:00        3.87        11.3       0.175
  jd59                 JUNCTION     0.153    0.758     0  22:00        3.83        18.6       4.350
  jd60                 JUNCTION     0.274    0.580     0  22:00        6.87        14.6       0.889
  jd61                 JUNCTION     0.307    0.345     0  22:00        7.75        8.72       0.126
  jd62                 JUNCTION     0.124    0.124     0  22:00        3.14        3.14       0.051
  jd63                 JUNCTION     0.170    0.170     0  22:00        4.26        4.26       0.078
  jd64                 JUNCTION     0.143    0.353     0  22:00        3.58        8.84       4.409
  jd65                 JUNCTION     2.410    2.410     0  22:00        61.1        61.1       0.131
  jd66                 JUNCTION     0.320    0.930     0  22:00        8.13        23.6       1.357
  jd69                 JUNCTION     0.594    0.610     0  22:00          15        15.5       0.165
  jd79                 JUNCTION     0.576    1.061     0  22:00        14.5        25.1       0.699
  jd80                 JUNCTION     0.639    0.832     0  22:00          16        22.4       0.667
  jd81                 JUNCTION     0.485    0.485     0  22:00        12.2        12.2       0.043
  jd83                 JUNCTION     0.509    0.666     0  22:00        12.8        17.8       0.477
  jd84                 JUNCTION     0.646    0.646     0  22:00        16.3        16.3       0.127
  jd85                 JUNCTION     0.147    0.241     0  22:00        3.69        6.07       1.404
  jd87                 JUNCTION     0.120    0.289     0  22:00        3.01        7.29       1.031
  jd89                 JUNCTION     0.140    0.140     0  22:00        3.51        3.51       0.172
  jd90                 JUNCTION     0.143    0.143     0  22:00        3.58        3.58       0.112
  jd92                 JUNCTION     0.120    0.120     0  22:00        3.01        3.01       0.087
  jd93                 JUNCTION     0.257    0.557     0  22:00        6.47          14       0.228
  jd94                 JUNCTION     0.016    0.300     0  22:00       0.413        7.53       0.274
  jd95                 JUNCTION     0.031    0.284     0  22:00       0.783        7.13       0.246
  jd96                 JUNCTION     0.235    0.313     0  22:00        5.98        7.93       1.223
  jd97                 JUNCTION     0.253    0.253     0  22:00        6.35        6.35       0.063
  jd98                 JUNCTION     0.141    0.141     0  22:00        3.54        3.54       0.109
  jd99                 JUNCTION     0.068    0.236     0  22:00        1.72        6.09       0.936
  jd101                JUNCTION     0.185    0.369     0  22:00        4.65        9.24       0.074
  jd102                JUNCTION     0.184    0.184     0  22:00         4.6         4.6       0.166
  jd103                JUNCTION     0.127    0.127     0  22:00        3.18        3.18       0.045
  jd106                JUNCTION     0.099    0.569     0  22:00        2.49        14.3       2.775
  jd107                JUNCTION     0.143    0.471     0  22:00         3.6        11.8       0.213
  jd108                JUNCTION     0.156    0.156     0  22:00        3.94        3.96       1.688
  jd109                JUNCTION     0.260    0.260     0  22:00        6.53        6.53       0.048
  jd110                JUNCTION     0.198    0.295     0  22:00        5.07        7.54       2.044
  jd111                JUNCTION     0.164    0.164     0  22:00        4.17        4.17       0.087
  jd112                JUNCTION     0.193    0.537     0  22:00        4.83        13.6       0.083
  jd113                JUNCTION     0.130    0.130     0  22:00        3.32        3.32       0.019
  jd114                JUNCTION     0.157    2.051     0  22:00        3.93        51.3       0.616
  jd117                JUNCTION     0.144    0.493     0  01:48        3.61        12.1       1.284
  jd118                JUNCTION     0.132    0.132     0  22:00        3.31        3.31       0.018
  jd120                JUNCTION     0.165    0.165     0  22:00        4.13        4.13       0.080
  jd121                JUNCTION     0.203    0.203     0  22:00        5.13        5.13       0.105
  jd122                JUNCTION     0.483    1.982     0  22:00        12.1        68.2       0.827
  jd123                JUNCTION     0.497    2.005     0  22:00        12.5        72.2       0.970
  jd124                JUNCTION     0.714    1.751     0  21:54          18        52.2       0.112
  jd125                JUNCTION     0.691    2.268     0  21:49        17.4        59.7       0.121
  jd126                JUNCTION     1.002    1.407     0  22:00        25.3        35.5       0.283
  jd135                JUNCTION     0.258    0.258     0  22:00        6.46        6.46       0.070
  jd136                JUNCTION     0.214    0.344     0  22:00        5.42        8.74       0.217
  psk1                 OUTFALL      0.000    0.255     0  22:00           0        6.39       0.000
  psk2                 OUTFALL      0.000    0.643     0  22:00           0        16.1       0.000
  psk3                 OUTFALL      0.000    1.081     0  22:00           0        26.9       0.000
  psk4                 OUTFALL      0.000    0.000     0  00:00           0           0       0.000 ltr
  psk5                 OUTFALL      0.000    0.263     0  22:00           0        6.73       0.000
  psk6                 OUTFALL      0.000    0.218     0  22:00           0        5.55       0.000
  psk7                 OUTFALL      0.000    1.476     0  22:00           0        44.6       0.000
  psk8                 OUTFALL      0.000    0.000     0  00:00           0           0       0.000 ltr
  
  
  **********************
  Node Surcharge Summary
  **********************
  
  Surcharging occurs when water rises above the top of the highest conduit.
  ---------------------------------------------------------------------
                                               Max. Height   Min. Depth
                                   Hours       Above Crown    Below Rim
  Node                 Type      Surcharged         Meters       Meters
  ---------------------------------------------------------------------
  jd3                  JUNCTION       23.17          2.200        0.000
  jd4                  JUNCTION        1.88          2.200        0.000
  jd8                  JUNCTION       10.78          2.200        0.000
  jd9                  JUNCTION        5.06          2.200        0.000
  jd10                 JUNCTION       23.28          2.400        0.000
  jd12                 JUNCTION       23.34          2.400        0.000
  jd17                 JUNCTION       12.80          2.200        0.000
  jd19                 JUNCTION        0.90          2.200        0.000
  jd21                 JUNCTION       23.20          2.200        0.000
  jd22                 JUNCTION       23.07          1.698        0.702
  jd28                 JUNCTION       23.41          2.400        0.000
  jd31                 JUNCTION       22.96          2.200        0.000
  jd32                 JUNCTION       23.34          2.200        0.000
  jd35                 JUNCTION       23.52          2.400        0.000
  jd39                 JUNCTION       23.18          2.000        0.000
  jd40                 JUNCTION        0.35          2.200        0.000
  jd41                 JUNCTION       22.79          1.000        0.000
  jd45                 JUNCTION       23.25          2.000        0.000
  jd50                 JUNCTION       23.44          2.200        0.000
  jd51                 JUNCTION       22.71          1.350        0.000
  jd55                 JUNCTION        0.80          0.070        1.430
  jd59                 JUNCTION       22.60          1.500        0.000
  jd60                 JUNCTION       23.36          2.400        0.000
  jd64                 JUNCTION       22.62          1.800        0.000
  jd65                 JUNCTION        5.00          2.400        0.000
  jd66                 JUNCTION       23.26          2.200        0.000
  jd79                 JUNCTION       23.39          2.400        0.000
  jd80                 JUNCTION       17.39          2.400        0.000
  jd83                 JUNCTION       23.57          2.400        0.000
  jd85                 JUNCTION       23.29          2.400        0.000
  jd87                 JUNCTION       23.31          2.400        0.000
  jd96                 JUNCTION       23.40          2.200        0.000
  jd99                 JUNCTION       23.24          2.400        0.000
  jd106                JUNCTION       22.97          2.000        0.000
  jd108                JUNCTION       23.34          0.274        1.726
  jd110                JUNCTION       23.29          2.000        0.000
  jd114                JUNCTION       23.28          2.000        0.000
  jd117                JUNCTION       23.19          2.200        0.000
  jd122                JUNCTION       23.21          2.200        0.000
  jd123                JUNCTION       23.15          2.200        0.000
  jd124                JUNCTION       23.63          2.400        0.000
  jd125                JUNCTION        1.34          2.200        0.000
  jd126                JUNCTION       23.54          2.400        0.000
  
  
  *********************
  Node Flooding Summary
  *********************
  
  Flooding refers to all water that overflows a node, whether it ponds or not.
  --------------------------------------------------------------------------
                                                             Total   Maximum
                                 Maximum   Time of Max       Flood    Ponded
                        Hours       Rate    Occurrence      Volume     Depth
  Node                 Flooded       CMS   days hr:min    10^6 ltr    Meters
  --------------------------------------------------------------------------
  jd3                    23.17     1.493      0  22:00      39.783     0.000
  jd4                     0.93     0.133      0  21:12       0.231     0.000
  jd8                     0.69     0.059      0  21:45       0.122     0.000
  jd9                     0.35     0.071      0  21:21       0.011     0.000
  jd10                   23.28     0.343      0  22:00       8.533     0.000
  jd12                   23.33     0.650      0  22:00      16.091     0.000
  jd17                    4.14     0.783      0  02:01       3.171     0.000
  jd19                    0.01     0.103      0  21:21       0.001     0.000
  jd21                   22.97     1.436      0  22:00      37.780     0.000
  jd28                   23.41     1.072      0  22:00      26.941     0.000
  jd31                    0.01     0.710      0  02:02       0.008     0.000
  jd32                   23.34     2.090      0  21:50      46.722     0.000
  jd35                   23.52     1.688      0  22:00      42.502     0.000
  jd39                   23.18     2.495      0  22:00      62.098     0.000
  jd40                    0.01     0.232      0  21:51       0.003     0.000
  jd41                   22.78     2.790      0  22:00      67.455     0.000
  jd45                   23.25     2.125      0  22:00      51.666     0.000
  jd50                   23.44     2.937      0  22:00      98.885     0.000
  jd51                   22.70     1.050      0  22:00      25.035     0.000
  jd59                   22.59     0.758      0  22:00      17.844     0.000
  jd60                   23.35     0.580      0  22:00      14.501     0.000
  jd64                    0.01     0.183      0  02:24       0.004     0.000
  jd65                    4.76     1.317      0  22:00       8.239     0.000
  jd66                   23.26     0.930      0  22:00      23.250     0.000
  jd79                   10.54     0.839      0  22:00      10.612     0.000
  jd80                    7.45     0.674      0  22:00       8.205     0.000
  jd83                   23.57     0.666      0  22:00      17.711     0.000
  jd85                   23.29     0.241      0  22:00       5.984     0.000
  jd87                   23.31     0.289      0  22:00       7.218     0.000
  jd96                   23.39     0.313      0  22:00       7.833     0.000
  jd99                   23.24     0.236      0  22:00       6.038     0.000
  jd106                  22.97     0.569      0  22:00      13.875     0.000
  jd110                  23.29     0.295      0  22:00       7.386     0.000
  jd114                  23.20     2.051      0  22:00      50.871     0.000
  jd117                   0.01     0.386      0  01:48       0.004     0.000
  jd122                  23.16     1.982      0  22:00      67.510     0.000
  jd123                  23.15     1.691      0  22:00      45.336     0.000
  jd124                  23.63     1.751      0  21:54      52.186     0.000
  jd125                   0.01     0.266      0  21:19       0.002     0.000
  jd126                  23.54     1.407      0  22:00      35.403     0.000
  
  
  ***********************
  Outfall Loading Summary
  ***********************
  
  -----------------------------------------------------------
                         Flow       Avg       Max       Total
                         Freq      Flow      Flow      Volume
  Outfall Node           Pcnt       CMS       CMS    10^6 ltr
  -----------------------------------------------------------
  psk1                  98.75     0.086     0.255       6.394
  psk2                  98.74     0.216     0.643      16.112
  psk3                  98.75     0.362     1.081      26.921
  psk4                   0.00     0.000     0.000       0.000
  psk5                  98.75     0.090     0.263       6.734
  psk6                  98.74     0.074     0.218       5.550
  psk7                  98.75     0.587     1.476      44.606
  psk8                   0.00     0.000     0.000       0.000
  -----------------------------------------------------------
  System                74.06     1.415     0.000     106.316
  
  
  ********************
  Link Flow Summary
  ********************
  
  -----------------------------------------------------------------------------
                                 Maximum  Time of Max   Maximum    Max/    Max/
                                  |Flow|   Occurrence   |Veloc|    Full    Full
  Link                 Type          CMS  days hr:min     m/sec    Flow   Depth
  -----------------------------------------------------------------------------
  GQ1                  CONDUIT     0.156     0  22:00      1.69    0.41    0.36
  GQ2                  CONDUIT     0.411     0  22:00      1.95    0.20    0.31
  GQ3                  CONDUIT     0.255     0  22:00      4.73    0.01    0.07
  GQ4                  CONDUIT     0.510     0  21:43      1.80    1.00    1.00
  GQ5                  CONDUIT     0.523     0  22:00      1.33    0.43    0.73
  GQ6                  CONDUIT     0.142     0  22:00      1.04    0.06    0.32
  GQ7                  CONDUIT     1.619     0  22:12      3.55    0.97    1.00
  GQ8                  CONDUIT     0.280     0  22:00      0.93    0.27    0.68
  GQ9                  CONDUIT     0.760     0  22:00      2.10    0.27    0.68
  GQ10                 CONDUIT     1.137     0  19:30      4.10    1.04    1.00
  GQ11                 CONDUIT     0.083     0  22:00      1.52    0.09    0.28
  GQ12                 CONDUIT     0.096     0  22:00      0.59    0.10    0.61
  GQ13                 CONDUIT     0.066     0  22:00      0.43    0.03    0.56
  GQ14                 CONDUIT     0.032     0  22:00      0.77    0.04    0.14
  GQ15                 CONDUIT     0.089     0  22:00      3.62    0.36    0.38
  GQ16                 CONDUIT     0.554     0  22:00      3.20    0.27    0.27
  GQ17                 CONDUIT     0.156     0  22:00      1.14    0.05    0.33
  GQ18                 CONDUIT     1.019     0  22:00      2.50    4.59    0.76
  GQ19                 CONDUIT     0.206     0  22:00      1.40    0.02    0.26
  GQ20                 CONDUIT     0.045     0  22:00      0.39    0.02    0.21
  GQ21                 CONDUIT     0.166     0  22:00      1.22    0.05    0.23
  GQ22                 CONDUIT     0.168     0  22:00      1.44    0.05    0.21
  GQ23                 CONDUIT     0.295     0  22:00      1.87    0.14    0.26
  GQ24                 CONDUIT     0.437     0  22:00      1.25    0.22    0.66
  GQ25                 CONDUIT     0.283     0  22:00      2.96    0.32    0.37
  GQ26                 CONDUIT     0.222     0  22:00      2.21    0.26    0.38
  GQ27                 CONDUIT     0.369     0  22:00      1.72    0.37    0.71
  GQ28                 CONDUIT     0.159     0  22:00      0.47    0.17    0.64
  GQ29                 CONDUIT     0.544     0  02:02      1.13    0.25    1.00
  GQ30                 CONDUIT     0.663     0  22:00      2.35    0.81    1.00
  GQ31                 CONDUIT     0.247     0  22:00      1.17    0.33    0.70
  GQ32                 CONDUIT     0.373     0  22:00      2.68    0.60    0.49
  GQ33                 CONDUIT     0.957     0  22:00      3.95    0.67    0.80
  GQ34                 CONDUIT     0.178     0  22:00      1.33    0.28    0.48
  GQ35                 CONDUIT     0.343     0  22:00      1.98    0.64    0.59
  GQ36                 CONDUIT     0.513     0  22:00      2.75    0.64    0.63
  GQ37                 CONDUIT     0.226     0  22:00      1.08    0.32    0.70
  GQ38                 CONDUIT     0.084     0  22:00      0.46    0.12    0.62
  GQ39                 CONDUIT     0.375     0  22:00      1.66    0.48    0.74
  GQ40                 CONDUIT     0.260     0  22:00      2.17    0.32    0.44
  GQ41                 CONDUIT     0.744     0  22:00      1.26    0.34    0.70
  GQ42                 CONDUIT     1.202     0  22:00      2.39    0.88    1.00
  GQ43                 CONDUIT     1.360     0  22:00      3.76    0.61    0.78
  GQ44                 CONDUIT     0.946     0  21:58      1.88    1.00    1.00
  GQ45                 CONDUIT     0.422     0  22:00      1.80    0.17    0.64
  GQ46                 CONDUIT     0.857     0  22:00      1.91    0.80    1.00
  GQ47                 CONDUIT     0.073     0  22:00      0.42    0.07    0.59
  GQ48                 CONDUIT     0.073     0  22:00      0.42    0.07    0.59
  GQ49                 CONDUIT     0.277     0  22:00      1.54    0.10    0.61
  GQ50                 CONDUIT     0.080     0  22:00      0.90    0.10    0.35
  GQ51                 CONDUIT     0.308     0  22:00      2.23    0.47    0.49
  GQ52                 CONDUIT     0.234     0  22:00      0.77    0.31    0.69
  GQ53                 CONDUIT     1.623     0  22:03      2.16    0.73    0.91
  GQ54                 CONDUIT     0.175     0  22:00      0.93    0.15    0.63
  GQ55                 CONDUIT     0.131     0  22:00      0.74    0.09    0.60
  GQ56                 CONDUIT     1.697     0  22:00      3.97    0.93    0.88
  GQ57                 CONDUIT     0.245     0  22:00      0.94    0.16    0.52
  GQ58                 CONDUIT     0.511     0  22:00      1.52    0.16    0.64
  GQ59                 CONDUIT     1.088     0  22:00      2.16    0.90    1.00
  GQ60                 CONDUIT     0.822     0  22:00      0.68    0.20    0.65
  GQ61                 CONDUIT     0.113     0  22:00      0.43    0.01    0.54
  GQ62                 CONDUIT     0.236     0  22:00      0.52    0.02    0.55
  GQ63                 CONDUIT     0.536     0  22:00      1.08    0.02    0.54
  GQ64                 CONDUIT     0.038     0  22:00      1.08    0.03    0.19
  GQ65                 CONDUIT     0.016     0  22:00      0.27    0.03    0.27
  GQ66                 CONDUIT     0.067     0  22:00      0.58    0.02    0.55
  GQ67                 CONDUIT     0.353     0  22:00      0.41    0.24    1.00
  GQ68                 CONDUIT     0.283     0  22:00      0.57    0.09    0.60
  GQ69                 CONDUIT     0.610     0  22:00      1.74    0.22    0.66
  GQ70                 CONDUIT     0.218     0  22:00      6.28    0.03    0.12
  GQ71                 CONDUIT     0.263     0  22:00      4.58    0.06    0.17
  GQ72                 CONDUIT     1.476     0  22:00      4.86    0.35    0.41
  GQ73                 CONDUIT     0.643     0  22:00      9.68    0.04    0.14
  GQ74                 CONDUIT     0.137     0  22:00      1.08    0.02    0.22
  GQ75                 CONDUIT     0.145     0  22:00      0.31    0.04    0.57
  GQ76                 CONDUIT     1.081     0  22:00      4.80    0.23    0.33
  GQ77                 CONDUIT     0.000     0  00:00      0.00    0.00    0.15
  GQ78                 CONDUIT     0.485     0  22:00      2.11    0.53    0.76
  GQ79                 CONDUIT     0.222     0  22:00      1.08    0.48    0.69
  GQ80                 CONDUIT     0.192     0  22:00      0.84    0.32    0.76
  GQ81                 CONDUIT     0.474     0  02:00      1.68    3.00    1.00
  GQ82                 CONDUIT     0.233     0  22:00      1.46    0.16    0.64
  GQ83                 CONDUIT     0.252     0  22:00      2.31    0.16    0.41
  GQ84                 CONDUIT     0.488     0  22:00      2.29    0.39    0.72
  GQ85                 CONDUIT     0.158     0  22:00      0.73    0.27    0.72
  GQ86                 CONDUIT     0.069     0  22:00      0.55    0.03    0.56
  GQ87                 CONDUIT     0.025     0  22:00      0.15    0.04    0.57
  GQ88                 CONDUIT     0.169     0  22:00      0.90    0.15    0.63
  GQ89                 CONDUIT     0.140     0  22:00      0.72    0.18    0.65
  GQ90                 CONDUIT     0.143     0  22:00      0.82    0.14    0.63
  GQ91                 CONDUIT     0.120     0  22:00      0.72    0.15    0.63
  GQ92                 CONDUIT     0.284     0  22:00      1.51    0.41    0.40
  GQ93                 CONDUIT     0.300     0  22:00      1.29    0.26    0.47
  GQ94                 CONDUIT     0.555     0  22:00      1.96    0.66    0.58
  GQ95                 CONDUIT     0.078     0  22:00      0.28    0.02    0.55
  GQ96                 CONDUIT     0.253     0  22:00      1.13    0.43    0.46
  GQ97                 CONDUIT     0.141     0  22:00      1.65    0.25    0.34
  GQ98                 CONDUIT     0.168     0  22:00      0.83    0.24    0.67
  GQ99                 CONDUIT     0.256     0  22:00      0.71    0.01    0.54
  GQ100                CONDUIT     0.184     0  22:00      2.39    0.32    0.32
  GQ101                CONDUIT     0.127     0  22:00      0.96    0.09    0.60
  GQ102                CONDUIT     0.490     0  22:00      1.47    0.15    0.63
  GQ103                CONDUIT     0.249     0  22:00      1.15    0.38    0.71
  GQ104                CONDUIT     0.445     0  22:00      2.12    0.32    0.70
  GQ105                CONDUIT     0.550     0  01:50      1.09    1.75    1.00
  GQ106                CONDUIT     0.145     0  22:00      0.77    0.14    0.63
  GQ107                CONDUIT     0.535     0  22:00      2.37    0.48    0.74
  GQ108                CONDUIT     0.829     0  02:32      1.65    1.00    1.00
  GQ109                CONDUIT     0.104     0  22:00      1.10    0.14    0.37
  GQ110                CONDUIT     0.171     0  22:00      0.75    0.02    0.55
  GQ111                CONDUIT     0.154     0  22:00      0.90    0.14    0.63
  GQ112                CONDUIT     0.470     0  22:00      2.41    0.08    0.23
  GQ113                CONDUIT     0.260     0  22:00      2.99    0.20    0.35
  GQ114                CONDUIT     0.156     0  22:00      0.32    0.06    0.60
  GQ115                CONDUIT     0.067     0  22:00      0.82    0.01    0.13
  GQ116                CONDUIT     0.097     0  22:00      0.22    0.01    0.54
  GQ117                CONDUIT     0.344     0  22:00      3.60    0.21    0.24
  GQ118                CONDUIT     0.130     0  22:00      1.46    0.04    0.25
  GQ119                CONDUIT     1.421     0  22:00      3.35    0.62    0.79
  GQ120                CONDUIT     0.000     0  00:00      0.00    0.00    0.50
  GQ121                CONDUIT     0.475     0  22:00      0.94    0.34    1.00
  GQ122                CONDUIT     0.198     0  22:00      1.59    0.04    0.57
  GQ123                CONDUIT     0.132     0  22:00      1.26    0.06    0.59
  GQ124                CONDUIT     0.083     0  22:00      0.82    0.04    0.26
  GQ125                CONDUIT     0.165     0  22:00      0.88    0.19    0.65
  GQ126                CONDUIT     0.203     0  22:00      1.05    0.19    0.65
  GQ127                CONDUIT     0.475     0  22:00      1.61    0.61    0.57
  GQ128                CONDUIT     0.692     0  22:00      2.28    0.15    0.32
  GQ129                CONDUIT     1.225     0  21:49      2.44    0.93    1.00
  GQ130                CONDUIT     1.043     0  21:49      3.69    0.97    1.00
  GQ131                CONDUIT     0.405     0  22:00      1.80    0.47    0.74
  
  
  ***************************
  Flow Classification Summary
  ***************************
  
  -------------------------------------------------------------------------------------
                      Adjusted    ---------- Fraction of Time in Flow Class ---------- 
                       /Actual         Up    Down  Sub   Sup   Up    Down  Norm  Inlet 
  Conduit               Length    Dry  Dry   Dry   Crit  Crit  Crit  Crit  Ltd   Ctrl  
  -------------------------------------------------------------------------------------
  GQ1                     1.00   0.01  0.00  0.00  0.01  0.98  0.00  0.00  0.00  0.00
  GQ2                     1.00   0.01  0.00  0.00  0.01  0.98  0.00  0.00  0.96  0.00
  GQ3                     1.00   0.01  0.00  0.00  0.00  0.99  0.00  0.00  0.11  0.00
  GQ4                     1.00   0.01  0.00  0.00  0.99  0.00  0.00  0.00  0.70  0.00
  GQ5                     1.00   0.01  0.00  0.00  0.99  0.00  0.00  0.00  0.96  0.00
  GQ6                     1.00   0.01  0.00  0.00  0.99  0.00  0.00  0.00  0.96  0.00
  GQ7                     1.00   0.01  0.00  0.00  0.04  0.95  0.00  0.00  0.12  0.00
  GQ8                     1.00   0.01  0.00  0.00  0.99  0.00  0.00  0.00  0.95  0.00
  GQ9                     1.00   0.01  0.00  0.00  0.99  0.00  0.00  0.00  0.96  0.00
  GQ10                    1.00   0.01  0.00  0.00  0.68  0.31  0.00  0.00  0.73  0.00
  GQ11                    1.00   0.01  0.00  0.00  0.20  0.79  0.00  0.00  0.96  0.00
  GQ12                    1.00   0.01  0.00  0.00  0.98  0.00  0.00  0.00  0.96  0.00
  GQ13                    1.00   0.01  0.00  0.00  0.99  0.00  0.00  0.00  0.96  0.00
  GQ14                    1.00   0.01  0.00  0.00  0.99  0.00  0.00  0.00  0.00  0.00
  GQ15                    1.00   0.01  0.00  0.00  0.00  0.99  0.00  0.00  0.01  0.00
  GQ16                    1.00   0.01  0.00  0.00  0.00  0.99  0.00  0.00  0.00  0.00
  GQ17                    1.00   0.01  0.00  0.00  0.96  0.02  0.00  0.00  0.96  0.00
  GQ18                    1.00   0.01  0.00  0.00  0.94  0.04  0.00  0.00  0.02  0.00
  GQ19                    1.00   0.01  0.00  0.00  0.96  0.03  0.00  0.00  0.96  0.00
  GQ20                    1.00   0.01  0.00  0.00  0.99  0.00  0.00  0.00  0.96  0.00
  GQ21                    1.00   0.01  0.00  0.00  0.07  0.92  0.00  0.00  0.96  0.00
  GQ22                    1.00   0.01  0.00  0.00  0.00  0.99  0.00  0.00  0.96  0.00
  GQ23                    1.00   0.01  0.00  0.00  0.00  0.99  0.00  0.00  0.04  0.00
  GQ24                    1.00   0.01  0.00  0.00  0.99  0.00  0.00  0.00  0.96  0.00
  GQ25                    1.00   0.01  0.00  0.00  0.00  0.99  0.00  0.00  0.00  0.00
  GQ26                    1.00   0.01  0.00  0.00  0.00  0.99  0.00  0.00  0.95  0.00
  GQ27                    1.00   0.01  0.00  0.00  0.97  0.02  0.00  0.00  0.96  0.00
  GQ28                    1.00   0.01  0.00  0.00  0.99  0.00  0.00  0.00  0.96  0.00
  GQ29                    1.00   0.01  0.00  0.00  0.99  0.00  0.00  0.00  0.03  0.00
  GQ30                    1.00   0.01  0.00  0.00  0.98  0.01  0.00  0.00  0.02  0.00
  GQ31                    1.00   0.01  0.00  0.00  0.99  0.00  0.00  0.00  0.96  0.00
  GQ32                    1.00   0.01  0.00  0.00  0.00  0.99  0.00  0.00  0.01  0.00
  GQ33                    1.00   0.01  0.00  0.00  0.65  0.34  0.00  0.00  0.96  0.00
  GQ34                    1.00   0.01  0.00  0.00  0.99  0.00  0.00  0.00  0.96  0.00
  GQ35                    1.00   0.01  0.00  0.00  0.00  0.99  0.00  0.00  0.85  0.00
  GQ36                    1.00   0.01  0.00  0.00  0.00  0.99  0.00  0.00  0.95  0.00
  GQ37                    1.00   0.01  0.00  0.00  0.99  0.00  0.00  0.00  0.96  0.00
  GQ38                    1.00   0.01  0.00  0.00  0.99  0.00  0.00  0.00  0.96  0.00
  GQ39                    1.00   0.01  0.00  0.00  0.98  0.01  0.00  0.00  0.96  0.00
  GQ40                    1.00   0.01  0.00  0.00  0.00  0.98  0.00  0.00  0.96  0.00
  GQ41                    1.00   0.01  0.00  0.00  0.99  0.00  0.00  0.00  0.96  0.00
  GQ42                    1.00   0.01  0.00  0.00  0.99  0.00  0.00  0.00  0.90  0.00
  GQ43                    1.00   0.01  0.00  0.00  0.00  0.99  0.00  0.00  0.96  0.00
  GQ44                    1.00   0.01  0.00  0.00  0.99  0.00  0.00  0.00  0.62  0.00
  GQ45                    1.00   0.01  0.00  0.00  0.10  0.89  0.00  0.00  0.96  0.00
  GQ46                    1.00   0.01  0.00  0.00  0.40  0.58  0.00  0.00  0.86  0.00
  GQ47                    1.00   0.01  0.00  0.00  0.99  0.00  0.00  0.00  0.96  0.00
  GQ48                    1.00   0.01  0.00  0.00  0.99  0.00  0.00  0.00  0.96  0.00
  GQ49                    1.00   0.01  0.00  0.00  0.98  0.00  0.00  0.00  0.96  0.00
  GQ50                    1.00   0.01  0.00  0.00  0.99  0.00  0.00  0.00  0.96  0.00
  GQ51                    1.00   0.01  0.00  0.00  0.00  0.99  0.00  0.00  0.89  0.00
  GQ52                    1.00   0.01  0.00  0.00  0.99  0.00  0.00  0.00  0.94  0.00
  GQ53                    1.00   0.01  0.00  0.00  0.99  0.00  0.00  0.00  0.91  0.00
  GQ54                    1.00   0.01  0.00  0.00  0.99  0.00  0.00  0.00  0.96  0.00
  GQ55                    1.00   0.01  0.00  0.00  0.99  0.00  0.00  0.00  0.96  0.00
  GQ56                    1.00   0.01  0.00  0.00  0.00  0.99  0.00  0.00  0.91  0.00
  GQ57                    1.00   0.01  0.00  0.00  0.99  0.00  0.00  0.00  0.96  0.00
  GQ58                    1.00   0.01  0.00  0.00  0.98  0.01  0.00  0.00  0.96  0.00
  GQ59                    1.00   0.01  0.00  0.00  0.99  0.00  0.00  0.00  0.91  0.00
  GQ60                    1.00   0.01  0.00  0.00  0.99  0.00  0.00  0.00  0.04  0.00
  GQ61                    1.00   0.01  0.00  0.00  0.99  0.00  0.00  0.00  0.96  0.00
  GQ62                    1.00   0.01  0.00  0.00  0.99  0.00  0.00  0.00  0.96  0.00
  GQ63                    1.00   0.01  0.00  0.00  0.98  0.01  0.00  0.00  0.96  0.00
  GQ64                    1.00   0.01  0.00  0.00  0.19  0.80  0.00  0.00  0.96  0.00
  GQ65                    1.00   0.01  0.00  0.00  0.99  0.00  0.00  0.00  0.96  0.00
  GQ66                    1.00   0.01  0.00  0.00  0.98  0.00  0.00  0.00  0.96  0.00
  GQ67                    1.00   0.01  0.00  0.00  0.99  0.00  0.00  0.00  0.02  0.00
  GQ68                    1.00   0.01  0.00  0.00  0.99  0.00  0.00  0.00  0.96  0.00
  GQ69                    1.00   0.01  0.00  0.00  0.98  0.01  0.00  0.00  0.96  0.00
  GQ70                    1.00   0.01  0.00  0.00  0.00  0.99  0.00  0.00  0.00  0.00
  GQ71                    1.00   0.01  0.00  0.00  0.00  0.99  0.00  0.00  0.05  0.00
  GQ72                    1.00   0.01  0.00  0.00  0.00  0.99  0.00  0.00  0.19  0.00
  GQ73                    1.00   0.01  0.00  0.00  0.00  0.99  0.00  0.00  0.00  0.00
  GQ74                    1.00   0.01  0.00  0.00  0.96  0.02  0.00  0.00  0.96  0.00
  GQ75                    1.00   0.01  0.00  0.00  0.99  0.00  0.00  0.00  0.96  0.00
  GQ76                    1.00   0.01  0.00  0.00  0.00  0.99  0.00  0.00  0.12  0.00
  GQ77                    1.00   0.01  0.99  0.00  0.00  0.00  0.00  0.00  0.00  0.00
  GQ78                    1.00   0.01  0.00  0.00  0.98  0.01  0.00  0.00  0.96  0.00
  GQ79                    1.00   0.01  0.00  0.00  0.99  0.00  0.00  0.00  0.02  0.00
  GQ80                    1.00   0.01  0.00  0.00  0.99  0.00  0.00  0.00  0.76  0.00
  GQ81                    1.00   0.01  0.00  0.00  0.99  0.00  0.00  0.00  0.00  0.00
  GQ82                    1.00   0.01  0.00  0.00  0.98  0.01  0.00  0.00  0.96  0.00
  GQ83                    1.00   0.01  0.00  0.00  0.00  0.99  0.00  0.00  0.96  0.00
  GQ84                    1.00   0.01  0.00  0.00  0.00  0.99  0.00  0.00  0.96  0.00
  GQ85                    1.00   0.01  0.00  0.00  0.99  0.00  0.00  0.00  0.84  0.00
  GQ86                    1.00   0.01  0.00  0.00  0.99  0.00  0.00  0.00  0.96  0.00
  GQ87                    1.00   0.01  0.00  0.00  0.99  0.00  0.00  0.00  0.96  0.00
  GQ88                    1.00   0.01  0.00  0.00  0.99  0.00  0.00  0.00  0.96  0.00
  GQ89                    1.00   0.01  0.00  0.00  0.98  0.00  0.00  0.00  0.96  0.00
  GQ90                    1.00   0.01  0.00  0.00  0.98  0.01  0.00  0.00  0.96  0.00
  GQ91                    1.00   0.01  0.00  0.00  0.98  0.00  0.00  0.00  0.96  0.00
  GQ92                    1.00   0.01  0.00  0.00  0.92  0.07  0.00  0.00  0.00  0.00
  GQ93                    1.00   0.01  0.00  0.00  0.99  0.00  0.00  0.00  0.96  0.00
  GQ94                    1.00   0.01  0.00  0.00  0.08  0.91  0.00  0.00  0.00  0.00
  GQ95                    1.00   0.01  0.00  0.00  0.99  0.00  0.00  0.00  0.96  0.00
  GQ96                    1.00   0.01  0.00  0.00  0.99  0.00  0.00  0.00  0.64  0.00
  GQ97                    1.00   0.01  0.00  0.00  0.00  0.99  0.00  0.00  0.27  0.00
  GQ98                    1.00   0.01  0.00  0.00  0.99  0.00  0.00  0.00  0.93  0.00
  GQ99                    1.00   0.01  0.00  0.00  0.98  0.00  0.00  0.00  0.96  0.00
  GQ100                   1.00   0.01  0.00  0.00  0.00  0.99  0.00  0.00  0.00  0.00
  GQ101                   1.00   0.01  0.00  0.00  0.98  0.00  0.00  0.00  0.96  0.00
  GQ102                   1.00   0.01  0.00  0.00  0.98  0.01  0.00  0.00  0.96  0.00
  GQ103                   1.00   0.01  0.00  0.00  0.99  0.00  0.00  0.00  0.96  0.00
  GQ104                   1.00   0.01  0.00  0.00  0.94  0.05  0.00  0.00  0.96  0.00
  GQ105                   1.00   0.01  0.00  0.00  0.99  0.00  0.00  0.00  0.02  0.00
  GQ106                   1.00   0.01  0.00  0.00  0.98  0.00  0.00  0.00  0.96  0.00
  GQ107                   1.00   0.01  0.00  0.00  0.92  0.07  0.00  0.00  0.96  0.00
  GQ108                   1.00   0.01  0.00  0.00  0.99  0.00  0.00  0.00  0.03  0.00
  GQ109                   1.00   0.01  0.00  0.00  0.96  0.03  0.00  0.00  0.96  0.00
  GQ110                   1.00   0.01  0.00  0.00  0.98  0.00  0.00  0.00  0.96  0.00
  GQ111                   1.00   0.01  0.00  0.00  0.98  0.00  0.00  0.00  0.96  0.00
  GQ112                   1.00   0.01  0.00  0.00  0.00  0.99  0.00  0.00  0.95  0.00
  GQ113                   1.00   0.01  0.00  0.00  0.00  0.99  0.00  0.00  0.95  0.00
  GQ114                   1.00   0.01  0.00  0.00  0.99  0.00  0.00  0.00  0.03  0.00
  GQ115                   1.00   0.01  0.00  0.00  0.98  0.01  0.00  0.00  0.96  0.00
  GQ116                   1.00   0.01  0.00  0.00  0.99  0.00  0.00  0.00  0.96  0.00
  GQ117                   1.00   0.01  0.00  0.00  0.00  0.99  0.00  0.00  0.00  0.00
  GQ118                   1.00   0.01  0.00  0.00  0.22  0.76  0.00  0.00  0.96  0.00
  GQ119                   1.00   0.01  0.00  0.00  0.88  0.11  0.00  0.00  0.94  0.00
  GQ120                   1.00   0.01  0.02  0.00  0.97  0.00  0.00  0.00  0.00  0.00
  GQ121                   1.00   0.01  0.00  0.00  0.98  0.00  0.00  0.00  0.03  0.00
  GQ122                   1.00   0.01  0.00  0.00  0.97  0.02  0.00  0.00  0.96  0.00
  GQ123                   1.00   0.01  0.00  0.00  0.97  0.02  0.00  0.00  0.96  0.00
  GQ124                   1.00   0.01  0.00  0.00  0.98  0.00  0.00  0.00  0.96  0.00
  GQ125                   1.00   0.01  0.00  0.00  0.98  0.00  0.00  0.00  0.96  0.00
  GQ126                   1.00   0.01  0.00  0.00  0.98  0.00  0.00  0.00  0.96  0.00
  GQ127                   1.00   0.01  0.00  0.00  0.99  0.00  0.00  0.00  0.84  0.00
  GQ128                   1.00   0.01  0.00  0.00  0.00  0.99  0.00  0.00  0.95  0.00
  GQ129                   1.00   0.01  0.00  0.00  0.99  0.00  0.00  0.00  0.70  0.00
  GQ130                   1.00   0.01  0.00  0.00  0.66  0.33  0.00  0.00  0.70  0.00
  GQ131                   1.00   0.01  0.00  0.00  0.99  0.00  0.00  0.00  0.96  0.00
  
  
  *************************
  Conduit Surcharge Summary
  *************************
  
  ----------------------------------------------------------------------------
                                                           Hours        Hours 
                         --------- Hours Full --------   Above Full   Capacity
  Conduit                Both Ends  Upstream  Dnstream   Normal Flow   Limited
  ----------------------------------------------------------------------------
  GQ4                         2.63      2.63     23.24      0.01         0.01
  GQ5                         0.01      0.01     23.17      0.01         0.01
  GQ7                         0.14      0.14      1.34      0.01         0.01
  GQ8                         0.01      0.01      0.14      0.01         0.01
  GQ9                         0.01      0.01     23.44      0.01         0.01
  GQ10                        5.00      5.00     23.49      0.51         0.01
  GQ12                        0.01      0.01     21.85      0.01         0.01
  GQ13                        0.01      0.01      1.88      0.01         0.01
  GQ18                        0.01      0.01     10.78     17.52         0.01
  GQ24                        0.01      0.01     23.34      0.01         0.01
  GQ27                        0.01      0.01     23.07      0.01         0.01
  GQ28                        0.01      0.01     23.20      0.01         0.01
  GQ29                       22.96     22.96     23.20      0.01         0.01
  GQ30                       23.07     23.07     23.27      0.01         0.01
  GQ31                        0.01      0.01     23.52      0.01         0.01
  GQ33                        0.01      0.01     23.52      0.01         0.01
  GQ37                        0.01      0.01     23.41      0.01         0.01
  GQ38                        0.01      0.01     23.41      0.01         0.01
  GQ39                        0.01      0.01     21.85      0.01         0.01
  GQ41                        0.01      0.01     23.18      0.01         0.01
  GQ42                        0.35      0.35     23.23      0.01         0.01
  GQ43                        0.01      0.01      0.35      0.01         0.01
  GQ44                        5.06      5.06     10.78      0.01         0.01
  GQ45                        0.01      0.01      0.90      0.01         0.01
  GQ46                        0.90      0.90      5.06      0.01         0.01
  GQ47                        0.01      0.01     23.28      0.01         0.01
  GQ48                        0.01      0.01     23.34      0.01         0.01
  GQ49                        0.01      0.01     23.34      0.01         0.01
  GQ52                        0.01      0.01     22.96      0.01         0.01
  GQ53                        0.01      0.01     23.25      0.01         0.01
  GQ54                        0.01      0.01     23.36      0.01         0.01
  GQ55                        0.01      0.01     23.36      0.01         0.01
  GQ56                        0.01      0.01      0.14      0.01         0.01
  GQ58                        0.01      0.01     23.11      0.01         0.01
  GQ59                        0.35      0.35     23.11      0.01         0.01
  GQ60                        0.01      0.01      0.80      0.01         0.01
  GQ61                        0.01      0.01     22.60      0.01         0.01
  GQ62                        0.01      0.01     22.71      0.01         0.01
  GQ63                        0.01      0.01     22.79      0.01         0.01
  GQ66                        0.01      0.01     22.81      0.01         0.01
  GQ67                       22.62     22.62     22.71      0.01         0.01
  GQ68                        0.01      0.01     22.98      0.01         0.01
  GQ69                        0.01      0.01     23.26      0.01         0.01
  GQ75                        0.01      0.01     22.97      0.01         0.01
  GQ78                        0.01      0.01     23.39      0.01         0.01
  GQ79                        0.01      0.01     23.39      0.01         0.01
  GQ80                        0.01      0.01     17.38      0.01         0.01
  GQ81                       17.27     17.38     21.85     12.23         7.85
  GQ82                        0.01      0.01     21.85      0.01         0.01
  GQ84                        0.01      0.01      0.29      0.01         0.01
  GQ85                        0.01      0.01     23.57      0.01         0.01
  GQ86                        0.01      0.01     23.29      0.01         0.01
  GQ87                        0.01      0.01     23.29      0.01         0.01
  GQ88                        0.01      0.01     23.31      0.01         0.01
  GQ89                        0.01      0.01     23.05      0.01         0.01
  GQ90                        0.01      0.01     22.93      0.01         0.01
  GQ91                        0.01      0.01     23.13      0.01         0.01
  GQ95                        0.01      0.01     23.40      0.01         0.01
  GQ98                        0.01      0.01     23.24      0.01         0.01
  GQ99                        0.01      0.01     22.75      0.01         0.01
  GQ101                       0.01      0.01     23.14      0.01         0.01
  GQ102                       0.01      0.01     23.21      0.01         0.01
  GQ103                       0.01      0.01     23.29      0.01         0.01
  GQ104                       0.01      0.01     23.29      0.01         0.01
  GQ105                      23.15     23.15     23.21     22.76         0.01
  GQ106                       0.01      0.01     23.19      0.01         0.01
  GQ107                       0.01      0.01     23.19      0.01         0.01
  GQ108                      12.80     12.80     23.15      0.01         0.01
  GQ110                       0.01      0.01     22.97      0.01         0.01
  GQ111                       0.01      0.01     23.14      0.01         0.01
  GQ114                       0.01      0.01     23.34      0.01         0.01
  GQ116                       0.01      0.01     23.29      0.01         0.01
  GQ119                       0.01      0.01     23.33      0.01         0.01
  GQ120                       0.01      0.01     23.28      0.01         0.01
  GQ121                      23.19     23.19     23.33      0.01         0.01
  GQ122                       0.01      0.01     23.19      0.01         0.01
  GQ123                       0.01      0.01     23.20      0.01         0.01
  GQ125                       0.01      0.01     23.13      0.01         0.01
  GQ126                       0.01      0.01     23.14      0.01         0.01
  GQ129                       1.34      1.34     23.34      0.01         0.01
  GQ130                       1.81      1.81     23.63      0.01         0.01
  GQ131                       0.01      0.01     23.54      0.01         0.01
  

  Analysis begun on:  Sat Mar 25 16:23:34 2023
  Analysis ended on:  Sat Mar 25 16:23:41 2023
  Total elapsed time: 00:00:07