
  OWA STORM WATER MANAGEMENT MODEL - VERSION v5.1.14 (OWA 2022-07-31)
  --------------------------------------------------------------

  INP file created by DSDAConvertToSwmmTools 
  version 0.0.1 EcoVista 
  Title/Notes: 
  
  
  *********************************************************
  NOTE: The summary statistics displayed in this report are
  based on results found at every computational time step,  
  not just on results from each reporting time step.
  *********************************************************
  
  ****************
  Analysis Options
  ****************
  Flow Units ............... CMS
  Process Models:
    Rainfall/Runoff ........ YES
    RDII ................... NO
    Snowmelt ............... NO
    Groundwater ............ NO
    Flow Routing ........... YES
    Ponding Allowed ........ NO
    Water Quality .......... NO
  Infiltration Method ...... GREEN_AMPT
  Flow Routing Method ...... DYNWAVE
  Surcharge Method ......... EXTRAN
  Starting Date ............ 07/15/2020 00:00:00
  Ending Date .............. 07/15/2020 11:00:00
  Antecedent Dry Days ...... 0.0
  Report Time Step ......... 00:30:00
  Wet Time Step ............ 00:05:00
  Dry Time Step ............ 01:00:00
  Routing Time Step ........ 30.00 sec
  Variable Time Step ....... YES
  Maximum Trials ........... 8
  Number of Threads ........ 1
  Head Tolerance ........... 0.001500 m
  
  
  **************************        Volume         Depth
  Runoff Quantity Continuity     hectare-m            mm
  **************************     ---------       -------
  Total Precipitation ......        47.558        11.900
  Evaporation Loss .........         3.751         0.939
  Infiltration Loss ........        12.710         3.180
  Surface Runoff ...........        23.798         5.955
  Final Storage ............         7.382         1.847
  Continuity Error (%) .....        -0.173
  
  
  **************************        Volume        Volume
  Flow Routing Continuity        hectare-m      10^6 ltr
  **************************     ---------     ---------
  Dry Weather Inflow .......         0.000         0.000
  Wet Weather Inflow .......        23.730       237.305
  Groundwater Inflow .......         0.000         0.000
  RDII Inflow ..............         0.000         0.000
  External Inflow ..........         0.000         0.000
  External Outflow .........         2.442        24.415
  Flooding Loss ............        19.864       198.646
  Evaporation Loss .........         0.000         0.000
  Exfiltration Loss ........         0.000         0.000
  Initial Stored Volume ....         0.000         0.000
  Final Stored Volume ......         1.257        12.567
  Continuity Error (%) .....         0.707
  
  
  *************************
  Highest Continuity Errors
  *************************
  Node jd51 (22.80%)
  Node jd59 (19.80%)
  Node jd64 (18.73%)
  Node jd55 (15.80%)
  Node jd31 (15.74%)
  
  
  ***************************
  Time-Step Critical Elements
  ***************************
  Link GQ73 (95.17%)
  
  
  ********************************
  Highest Flow Instability Indexes
  ********************************
  Link GQ67 (16)
  Link GQ29 (9)
  Link GQ121 (7)
  Link GQ114 (5)
  Link GQ30 (2)
  
  
  *************************
  Routing Time Step Summary
  *************************
  Minimum Time Step           :     3.86 sec
  Average Time Step           :    11.73 sec
  Maximum Time Step           :    30.00 sec
  Percent in Steady State     :    -0.00
  Average Iterations per Step :     3.38
  Percent Not Converging      :    10.84
  
  
  ***************************
  Subcatchment Runoff Summary
  ***************************
  
  ------------------------------------------------------------------------------------------------------------------------------
                            Total      Total      Total      Total     Imperv       Perv      Total       Total     Peak  Runoff
                           Precip      Runon       Evap      Infil     Runoff     Runoff     Runoff      Runoff   Runoff   Coeff
  Subcatchment                 mm         mm         mm         mm         mm         mm         mm    10^6 ltr      CMS
  ------------------------------------------------------------------------------------------------------------------------------
  1                         11.90       0.00       0.56       6.67       3.70       0.00       3.70        1.46     0.21   0.311
  2                         11.90       0.00       1.01       2.53       6.29       0.00       6.29        5.69     0.71   0.529
  3                         11.90       0.00       1.05       2.17       6.65       0.00       6.65        2.66     0.38   0.559
  4                         11.90       0.00       1.08       1.87       6.94       0.00       6.94        0.58     0.09   0.583
  5                         11.90       0.00       0.95       3.03       6.15       0.00       6.15        0.76     0.11   0.517
  6                         11.90       0.00       0.91       3.41       5.93       0.00       5.93        0.55     0.08   0.498
  7                         11.90       0.00       0.95       3.04       6.01       0.00       6.01        2.62     0.35   0.505
  8                         11.90       0.00       1.21       0.67       7.65       0.00       7.65        1.06     0.15   0.643
  9                         11.90       0.00       1.25       0.33       7.89       0.00       7.89        0.92     0.13   0.663
  10                        11.90       0.00       1.07       1.94       6.82       0.00       6.82        1.54     0.22   0.573
  11                        11.90       0.00       1.16       1.14       7.31       0.00       7.31        3.62     0.50   0.614
  12                        11.90       0.00       0.91       3.42       5.82       0.00       5.82        2.84     0.41   0.489
  13                        11.90       0.00       1.14       1.28       7.22       0.00       7.22        3.27     0.46   0.607
  14                        11.90       0.00       1.14       1.30       7.27       0.00       7.27        1.37     0.20   0.611
  15                        11.90       0.00       1.06       2.09       6.70       0.00       6.70        2.27     0.32   0.563
  16                        11.90       0.00       1.09       1.73       6.93       0.00       6.93        2.05     0.29   0.582
  17                        11.90       0.00       1.03       2.38       6.51       0.00       6.51        2.72     0.39   0.547
  18                        11.90       0.00       1.18       0.94       7.44       0.00       7.44        3.07     0.43   0.625
  19                        11.90       0.00       1.18       0.98       7.39       0.00       7.39        1.66     0.23   0.621
  20                        11.90       0.00       1.17       1.04       7.27       0.00       7.27        3.90     0.50   0.611
  21                        11.90       0.00       1.24       0.35       7.81       0.00       7.81        2.45     0.34   0.656
  22                        11.90       0.00       1.22       0.56       7.65       0.00       7.65        0.94     0.13   0.643
  23                        11.90       0.00       1.12       1.46       7.06       0.00       7.06        4.04     0.54   0.593
  24                        11.90       0.00       1.09       1.82       6.81       0.00       6.81        1.21     0.16   0.572
  25                        11.90       0.00       1.16       1.12       7.37       0.00       7.37        1.49     0.22   0.620
  26                        11.90       0.00       0.99       2.71       6.19       0.00       6.19        2.17     0.28   0.520
  27                        11.90       0.00       1.19       0.89       7.37       0.00       7.37        3.11     0.40   0.619
  28                        11.90       0.00       1.21       0.66       7.57       0.00       7.57        3.58     0.48   0.636
  29                        11.90       0.00       1.08       1.85       6.91       0.00       6.91        1.61     0.24   0.581
  30                        11.90       0.00       1.24       0.40       7.93       0.00       7.93        0.57     0.09   0.666
  31                        11.90       0.00       1.25       0.25       7.90       0.00       7.90        1.74     0.25   0.664
  32                        11.90       0.00       1.22       0.53       7.70       0.00       7.70        3.33     0.46   0.647
  33                        11.90       0.00       1.24       0.39       7.78       0.00       7.78        2.74     0.37   0.654
  34                        11.90       0.00       1.15       1.21       7.27       0.00       7.27        2.13     0.30   0.611
  35                        11.90       0.00       1.18       0.90       7.46       0.00       7.46        3.09     0.43   0.627
  36                        11.90       0.00       0.98       2.83       6.25       0.00       6.25        2.46     0.35   0.525
  37                        11.90       0.00       1.21       0.64       7.63       0.00       7.63        1.69     0.24   0.641
  38                        11.90       0.00       1.14       1.35       7.19       0.00       7.19        2.74     0.39   0.604
  39                        11.90       0.00       1.03       2.37       6.54       0.00       6.54        2.76     0.40   0.550
  40                        11.90       0.00       1.14       1.29       7.23       0.00       7.23        1.65     0.23   0.607
  41                        11.90       0.00       1.17       1.05       7.42       0.00       7.42        1.46     0.21   0.624
  42                        11.90       0.00       1.17       1.06       7.28       0.00       7.28        1.80     0.24   0.612
  43                        11.90       0.00       0.98       2.78       6.21       0.00       6.21        4.91     0.64   0.522
  44                        11.90       0.00       1.05       2.17       6.58       0.00       6.58        3.18     0.42   0.553
  45                        11.90       0.00       0.98       2.76       6.25       0.00       6.25        4.52     0.61   0.525
  46                        11.90       0.00       0.95       3.08       6.12       0.00       6.12        3.06     0.44   0.514
  47                        11.90       0.00       1.00       2.63       6.33       0.00       6.33        7.38     1.00   0.532
  48                        11.90       0.00       1.19       0.82       7.40       0.00       7.40        4.29     0.54   0.622
  49                        11.90       0.00       1.09       1.76       6.80       0.00       6.80        4.60     0.59   0.571
  50                        11.90       0.00       1.21       0.67       7.43       0.00       7.43        2.92     0.34   0.624
  51                        11.90       0.00       1.16       1.16       7.14       0.00       7.14        1.34     0.16   0.600
  52                        11.90       0.00       0.56       6.68       3.71       0.00       3.71        3.81     0.56   0.312
  53                        11.90       0.00       0.81       4.33       5.30       0.00       5.30        5.64     0.81   0.445
  54                        11.90       0.00       1.01       2.56       6.40       0.00       6.40        1.56     0.22   0.538
  55                        11.90       0.00       0.58       6.55       3.79       0.00       3.79        2.99     0.44   0.318
  56                        11.90       0.00       0.22       9.88       1.51       0.00       1.51        1.23     0.18   0.127
  57                        11.90       0.00       1.14       1.33       7.09       0.00       7.09        5.89     0.75   0.596
  58                        11.90       0.00       1.05       2.10       6.69       0.00       6.69        1.10     0.16   0.562
  59                        11.90       0.00       1.03       2.34       6.62       0.00       6.62        0.84     0.13   0.557
  60                        11.90       0.00       0.39       8.32       2.60       0.00       2.60        0.74     0.11   0.219
  61                        11.90       0.00       0.60       6.33       3.86       0.00       3.86        1.45     0.21   0.324
  62                        11.90       0.00       0.84       4.14       5.32       0.00       5.32        6.23     0.83   0.447
  63                        11.90       0.00       1.14       1.31       7.04       0.00       7.04       13.62     1.64   0.592
  64                        11.90       0.00       0.85       4.00       5.52       0.00       5.52        1.19     0.16   0.464
  65                        11.90       0.00       1.16       1.16       7.15       0.00       7.15        4.81     0.59   0.601
  66                        11.90       0.00       0.91       3.44       5.75       0.00       5.75        1.46     0.19   0.483
  67                        11.90       0.00       0.85       4.00       5.56       0.00       5.56        1.80     0.25   0.467
  68                        11.90       0.00       1.02       2.42       6.51       0.00       6.51        0.72     0.11   0.547
  69                        11.90       0.00       0.60       6.33       4.02       0.00       4.02        1.29     0.19   0.338
  70                        11.90       0.00       0.84       4.07       5.38       0.00       5.38        4.43     0.62   0.452
  71                        11.90       0.00       1.04       2.22       6.63       0.00       6.63        0.81     0.12   0.557
  72                        11.90       0.00       1.10       1.70       6.98       0.00       6.98        0.87     0.13   0.587
  73                        11.90       0.00       0.99       2.66       6.40       0.00       6.40        1.06     0.16   0.538
  74                        11.90       0.00       0.95       3.09       6.10       0.00       6.10        1.31     0.19   0.513
  75                        11.90       0.00       1.05       2.11       6.72       0.00       6.72        0.97     0.14   0.565
  76                        11.90       0.00       1.11       1.60       7.08       0.00       7.08        0.69     0.10   0.595
  77                        11.90       0.00       1.18       0.92       7.48       0.00       7.48        0.81     0.12   0.628
  78                        11.90       0.00       1.14       1.30       7.22       0.00       7.22        0.79     0.11   0.606
  79                        11.90       0.00       0.50       7.25       3.34       0.00       3.34        3.54     0.51   0.280
  80                        11.90       0.00       0.94       3.14       5.95       0.00       5.95        3.73     0.50   0.500
  81                        11.90       0.00       0.96       3.00       6.05       0.00       6.05        2.64     0.35   0.508
  82                        11.90       0.00       0.92       3.38       5.81       0.00       5.81        5.32     0.71   0.488
  83                        11.90       0.00       1.15       1.25       7.29       0.00       7.29        0.89     0.13   0.613
  84                        11.90       0.00       1.08       1.85       6.86       0.00       6.86        0.82     0.12   0.576
  85                        11.90       0.00       1.27       0.09       8.06       0.00       8.06        0.75     0.11   0.677
  86                        11.90       0.00       1.17       1.00       7.42       0.00       7.42        1.09     0.16   0.624
  87                        11.90       0.00       1.25       0.25       7.86       0.00       7.86        1.03     0.15   0.661
  88                        11.90       0.00       1.12       1.48       7.14       0.00       7.14        0.68     0.10   0.600
  89                        11.90       0.00       1.18       0.96       7.47       0.00       7.47        1.44     0.21   0.628
  90                        11.90       0.00       1.28       0.00       8.17       0.00       8.17        0.09     0.01   0.686
  91                        11.90       0.00       1.07       1.99       6.65       0.00       6.65        1.45     0.18   0.559
  92                        11.90       0.00       1.18       0.93       7.48       0.00       7.48        0.93     0.13   0.628
  93                        11.90       0.00       0.96       2.96       6.13       0.00       6.13        3.14     0.44   0.515
  94                        11.90       0.00       0.87       3.85       5.69       0.00       5.69        0.40     0.06   0.478
  95                        11.90       0.00       1.28       0.01       8.10       0.00       8.10        0.18     0.03   0.681
  96                        11.90       0.00       1.03       2.30       6.60       0.00       6.60        0.81     0.12   0.554
  97                        11.90       0.00       1.25       0.25       7.93       0.00       7.93        0.79     0.11   0.666
  98                        11.90       0.00       1.04       2.25       6.65       0.00       6.65        0.82     0.12   0.559
  99                        11.90       0.00       0.51       7.12       3.46       0.00       3.46        1.28     0.18   0.291
  100                       11.90       0.00       0.57       6.59       3.83       0.00       3.83        0.98     0.14   0.322
  101                       11.90       0.00       0.59       6.45       3.90       0.00       3.90        1.91     0.27   0.328
  102                       11.90       0.00       0.96       3.03       6.10       0.00       6.10        1.49     0.21   0.513
  103                       11.90       0.00       0.32       8.93       2.19       0.00       2.19        0.80     0.12   0.184
  104                       11.90       0.00       0.22       9.89       1.48       0.00       1.48        1.43     0.21   0.124
  105                       11.90       0.00       1.05       2.11       6.74       0.00       6.74        0.88     0.13   0.566
  106                       11.90       0.00       0.57       6.60       3.79       0.00       3.79        0.92     0.13   0.318
  
  
  ******************
  Node Depth Summary
  ******************
  
  ---------------------------------------------------------------------------------
                                 Average  Maximum  Maximum  Time of Max    Reported
                                   Depth    Depth      HGL   Occurrence   Max Depth
  Node                 Type       Meters   Meters   Meters  days hr:min      Meters
  ---------------------------------------------------------------------------------
  jd1                  JUNCTION     0.06     0.12   273.12     0  03:00        0.12
  jd2                  JUNCTION     0.14     0.31   267.31     0  03:01        0.30
  jd3                  JUNCTION     2.64     3.00   266.00     0  02:29        3.00
  jd4                  JUNCTION     0.19     0.61   267.61     0  03:07        0.53
  jd5                  JUNCTION     0.04     0.09   274.09     0  03:00        0.09
  jd6                  JUNCTION     0.05     0.11   275.11     0  03:00        0.11
  jd7                  JUNCTION     0.18     0.37   264.47     0  03:00        0.37
  jd8                  JUNCTION     0.79     3.00   267.00     0  02:34        2.39
  jd9                  JUNCTION     0.36     3.00   268.00     0  02:46        2.00
  jd10                 JUNCTION     2.67     3.00   273.00     0  02:23        3.00
  jd11                 JUNCTION     0.04     0.10   282.10     0  03:00        0.10
  jd12                 JUNCTION     2.69     3.00   272.00     0  02:19        3.00
  jd13                 JUNCTION     0.05     0.12   289.12     0  03:00        0.12
  jd14                 JUNCTION     0.11     0.24   280.24     0  03:00        0.24
  jd15                 JUNCTION     0.12     0.25   278.25     0  03:02        0.25
  jd16                 JUNCTION     0.13     0.28   274.28     0  03:01        0.28
  jd17                 JUNCTION     0.95     3.00   278.80     0  02:40        3.00
  jd18                 JUNCTION     0.11     0.26   279.26     0  03:01        0.26
  jd19                 JUNCTION     0.24     0.62   267.62     0  03:02        0.60
  jd20                 JUNCTION     0.12     0.21   273.21     0  03:00        0.21
  jd21                 JUNCTION     2.64     3.00   273.00     0  02:27        3.00
  jd22                 JUNCTION     0.95     1.92   273.92     0  02:35        1.79
  jd23                 JUNCTION     0.10     0.22   278.22     0  03:00        0.22
  jd24                 JUNCTION     0.06     0.14   285.14     0  03:00        0.14
  jd25                 JUNCTION     0.10     0.23   279.23     0  03:00        0.23
  jd26                 JUNCTION     0.11     0.25   285.25     0  03:00        0.25
  jd27                 JUNCTION     0.09     0.20   291.20     0  03:01        0.20
  jd28                 JUNCTION     2.71     3.00   290.00     0  02:11        3.00
  jd29                 JUNCTION     0.04     0.10   299.10     0  03:00        0.10
  jd30                 JUNCTION     0.06     0.12   290.12     0  03:01        0.12
  jd31                 JUNCTION     0.87     3.00   275.00     0  02:41        1.04
  jd32                 JUNCTION     2.70     3.00   275.00     0  02:16        3.00
  jd33                 JUNCTION     0.08     0.19   289.19     0  03:00        0.19
  jd34                 JUNCTION     0.09     0.21   294.21     0  03:00        0.21
  jd35                 JUNCTION     2.76     3.00   292.00     0  02:00        3.00
  jd36                 JUNCTION     0.13     0.29   299.29     0  03:01        0.29
  jd37                 JUNCTION     0.13     0.29   303.29     0  03:00        0.29
  jd38                 JUNCTION     0.16     0.34   297.34     0  03:01        0.34
  jd39                 JUNCTION     2.65     3.00   297.00     0  02:28        3.00
  jd40                 JUNCTION     0.20     0.46   299.46     0  03:04        0.44
  jd41                 JUNCTION     2.55     3.00   296.00     0  02:51        3.00
  jd42                 JUNCTION     0.09     0.18   305.18     0  03:00        0.18
  jd43                 JUNCTION     0.21     0.51   297.51     0  03:01        0.51
  jd44                 JUNCTION     0.22     0.52   283.52     0  03:01        0.51
  jd45                 JUNCTION     2.68     3.00   282.00     0  02:23        3.00
  jd46                 JUNCTION     0.12     0.23   275.23     0  03:03        0.23
  jd47                 JUNCTION     0.07     0.16   315.16     0  03:00        0.16
  jd48                 JUNCTION     0.05     0.11   325.11     0  03:00        0.11
  jd49                 JUNCTION     0.11     0.23   289.23     0  03:00        0.23
  jd50                 JUNCTION     2.73     3.00   278.00     0  02:09        3.00
  jd51                 JUNCTION     2.52     3.00   313.00     0  02:55        3.00
  jd52                 JUNCTION     0.16     0.37   323.37     0  03:03        0.37
  jd53                 JUNCTION     0.16     0.38   322.38     0  03:02        0.38
  jd54                 JUNCTION     0.12     0.28   326.28     0  03:01        0.28
  jd55                 JUNCTION     1.05     1.47   323.47     0  03:02        1.46
  jd56                 JUNCTION     0.08     0.18   327.18     0  03:00        0.18
  jd59                 JUNCTION     2.48     3.00   320.80     0  03:00        3.00
  jd60                 JUNCTION     2.69     3.00   319.00     0  02:17        3.00
  jd61                 JUNCTION     0.06     0.14   329.14     0  03:00        0.14
  jd62                 JUNCTION     0.03     0.07   335.07     0  03:00        0.07
  jd63                 JUNCTION     0.03     0.07   324.07     0  03:00        0.07
  jd64                 JUNCTION     2.29     3.00   321.00     0  03:00        2.80
  jd65                 JUNCTION     0.40     3.00   307.00     0  02:48        3.00
  jd66                 JUNCTION     2.66     3.00   304.00     0  02:24        3.00
  jd69                 JUNCTION     0.10     0.23   333.23     0  03:00        0.23
  jd79                 JUNCTION     2.37     3.00   274.00     0  02:14        3.00
  jd80                 JUNCTION     0.98     3.00   279.00     0  02:32        3.00
  jd81                 JUNCTION     0.06     0.14   288.14     0  03:00        0.14
  jd83                 JUNCTION     2.76     3.00   323.00     0  01:58        3.00
  jd84                 JUNCTION     0.10     0.23   323.23     0  03:00        0.23
  jd85                 JUNCTION     2.67     3.00   324.00     0  02:22        3.00
  jd87                 JUNCTION     2.68     3.00   322.00     0  02:20        3.00
  jd89                 JUNCTION     0.07     0.15   324.15     0  03:00        0.15
  jd90                 JUNCTION     0.06     0.14   328.14     0  03:00        0.14
  jd92                 JUNCTION     0.06     0.14   326.14     0  03:00        0.14
  jd93                 JUNCTION     0.17     0.40   324.40     0  03:01        0.40
  jd94                 JUNCTION     0.11     0.25   326.45     0  03:02        0.25
  jd95                 JUNCTION     0.14     0.33   327.33     0  03:01        0.33
  jd96                 JUNCTION     2.70     3.00   308.00     0  02:16        3.00
  jd97                 JUNCTION     0.14     0.33   327.53     0  03:00        0.33
  jd98                 JUNCTION     0.08     0.19   329.19     0  03:00        0.19
  jd99                 JUNCTION     2.65     3.00   327.00     0  02:25        3.00
  jd101                JUNCTION     0.05     0.11   321.11     0  03:00        0.11
  jd102                JUNCTION     0.10     0.22   324.22     0  03:00        0.22
  jd103                JUNCTION     0.05     0.11   318.11     0  03:00        0.11
  jd106                JUNCTION     2.58     3.00   287.00     0  02:41        3.00
  jd107                JUNCTION     0.09     0.21   332.21     0  03:00        0.21
  jd108                JUNCTION     1.00     1.21   327.21     0  02:19        1.20
  jd109                JUNCTION     0.07     0.16   343.16     0  03:00        0.16
  jd110                JUNCTION     2.68     3.00   327.00     0  02:22        3.00
  jd111                JUNCTION     0.03     0.08   344.08     0  03:00        0.08
  jd112                JUNCTION     0.04     0.10   334.10     0  03:00        0.10
  jd113                JUNCTION     0.05     0.11   348.11     0  03:00        0.11
  jd114                JUNCTION     2.68     3.00   317.00     0  02:21        3.00
  jd117                JUNCTION     0.90     3.00   319.00     0  02:28        1.16
  jd118                JUNCTION     0.04     0.09   330.09     0  03:00        0.09
  jd120                JUNCTION     0.07     0.16   327.16     0  03:00        0.16
  jd121                JUNCTION     0.07     0.16   320.16     0  03:00        0.16
  jd122                JUNCTION     2.65     3.00   276.00     0  02:26        3.00
  jd123                JUNCTION     2.62     3.00   276.20     0  02:30        3.00
  jd124                JUNCTION     2.80     3.00   271.00     0  01:44        3.00
  jd125                JUNCTION     0.20     0.70   275.70     0  03:06        0.60
  jd126                JUNCTION     2.76     3.00   275.00     0  01:58        3.00
  jd135                JUNCTION     0.06     0.14   289.14     0  03:00        0.14
  jd136                JUNCTION     0.11     0.27   341.27     0  03:00        0.27
  psk1                 OUTFALL      0.04     0.10   279.10     0  03:00        0.10
  psk2                 OUTFALL      0.06     0.12   270.12     0  03:01        0.12
  psk3                 OUTFALL      0.13     0.28   271.28     0  03:01        0.28
  psk4                 OUTFALL      0.00     0.00   280.00     0  00:00        0.00
  psk5                 OUTFALL      0.06     0.12   263.12     0  03:00        0.12
  psk6                 OUTFALL      0.04     0.09   259.09     0  03:00        0.09
  psk7                 OUTFALL      0.18     0.37   262.37     0  03:00        0.37
  psk8                 OUTFALL      0.00     0.00   317.00     0  00:00        0.00
  
  
  *******************
  Node Inflow Summary
  *******************
  
  -------------------------------------------------------------------------------------------------
                                  Maximum  Maximum                  Lateral       Total        Flow
                                  Lateral    Total  Time of Max      Inflow      Inflow     Balance
                                   Inflow   Inflow   Occurrence      Volume      Volume       Error
  Node                 Type           CMS      CMS  days hr:min    10^6 ltr    10^6 ltr     Percent
  -------------------------------------------------------------------------------------------------
  jd1                  JUNCTION     0.207    0.320     0  03:00        1.46        2.38       0.459
  jd2                  JUNCTION     0.277    0.387     0  03:00        2.17           3       0.760
  jd3                  JUNCTION     0.346    1.057     0  03:00        2.61        9.04       4.583
  jd4                  JUNCTION     0.400    0.453     0  03:00        3.11        3.49       0.971
  jd5                  JUNCTION     0.135    0.231     0  03:00       0.921        1.64       0.220
  jd6                  JUNCTION     0.151    0.151     0  03:00        1.06        1.06       0.303
  jd7                  JUNCTION     0.083    1.217     0  03:00       0.549        10.6       0.345
  jd8                  JUNCTION     0.113    0.846     0  03:00       0.759        8.14       1.849
  jd9                  JUNCTION     0.088    0.741     0  03:03       0.581        7.43       0.538
  jd10                 JUNCTION     0.222    0.281     0  03:00        1.53        1.95       5.413
  jd11                 JUNCTION     0.323    0.323     0  03:00        2.26        2.26       0.422
  jd12                 JUNCTION     0.236    0.509     0  03:00        1.69        3.64       3.903
  jd13                 JUNCTION     0.428    0.428     0  03:00        3.06        3.06       0.297
  jd14                 JUNCTION     0.477    0.539     0  03:00        3.57        4.01       0.581
  jd15                 JUNCTION     0.216    0.442     0  03:00        1.49        3.21       1.476
  jd16                 JUNCTION     0.236    0.826     0  03:00        1.61        6.03       0.610
  jd17                 JUNCTION     0.463    1.172     0  02:40        3.32        11.5       3.125
  jd18                 JUNCTION     0.382    0.550     0  03:00        2.65        3.83       0.881
  jd19                 JUNCTION     0.358    0.719     0  03:00        2.47        6.88       0.480
  jd20                 JUNCTION     0.287    0.505     0  03:00        2.04        6.13       0.666
  jd21                 JUNCTION     0.129    1.077     0  03:00       0.938        8.67       4.031
  jd22                 JUNCTION     0.229    0.518     0  03:00        1.66        3.78       2.257
  jd23                 JUNCTION     0.232    0.638     0  03:00        1.65        4.53       0.495
  jd24                 JUNCTION     0.387    0.387     0  03:00        2.72        2.72       0.402
  jd25                 JUNCTION     0.298    0.432     0  03:00        2.13        3.07       0.679
  jd26                 JUNCTION     0.433    0.703     0  03:00        3.09        5.14       0.587
  jd27                 JUNCTION     0.425    0.681     0  03:00        3.17        5.27       0.542
  jd28                 JUNCTION     0.545    0.766     0  03:00        4.28        6.04       2.238
  jd29                 JUNCTION     0.247    0.247     0  03:00        1.74        1.74       0.217
  jd30                 JUNCTION     0.236    0.636     0  03:00        1.79        4.91       0.328
  jd31                 JUNCTION     0.161    0.748     0  02:41         1.2        2.83      18.681
  jd32                 JUNCTION     0.342    1.310     0  03:00        2.44        10.3       2.448
  jd33                 JUNCTION     0.349    0.583     0  03:00        2.45        4.08       0.360
  jd34                 JUNCTION     0.442    0.442     0  03:00        3.05        3.05       0.314
  jd35                 JUNCTION     0.396    1.260     0  03:00        2.75        9.58       1.386
  jd36                 JUNCTION     0.585    0.959     0  03:00        4.59        7.57       0.659
  jd37                 JUNCTION     0.644    0.644     0  03:00         4.9         4.9       0.386
  jd38                 JUNCTION     0.611    0.989     0  03:00        4.51        7.44       0.861
  jd39                 JUNCTION     0.437    1.779     0  03:00        3.13        13.9       3.788
  jd40                 JUNCTION     0.707    1.680     0  03:00        5.31        12.4       0.833
  jd41                 JUNCTION     0.504    1.990     0  03:00        3.71        15.4      15.947
  jd42                 JUNCTION     0.591    0.663     0  03:00         4.8        5.29       0.673
  jd43                 JUNCTION     0.807    1.383     0  03:00        5.63        9.63       0.988
  jd44                 JUNCTION     0.998    2.522     0  03:00        7.36        18.5       0.882
  jd45                 JUNCTION     0.344    1.507     0  03:00        2.91        11.6       2.845
  jd46                 JUNCTION     0.161    0.161     0  03:00        1.33        1.33       1.213
  jd47                 JUNCTION     0.618    0.618     0  03:00        4.42        4.42       0.128
  jd48                 JUNCTION     0.187    0.187     0  03:00        1.28        1.28       0.401
  jd49                 JUNCTION     0.748    0.748     0  03:00        5.88        5.88       0.517
  jd50                 JUNCTION     0.834    2.457     0  03:00        6.22        23.6       1.864
  jd51                 JUNCTION     0.192    0.850     0  03:00        1.31        6.01      29.538
  jd52                 JUNCTION     0.350    1.377     0  03:00        2.63        9.73       0.753
  jd53                 JUNCTION     0.185    1.080     0  03:00        1.45        7.84       0.477
  jd54                 JUNCTION     0.114    0.567     0  03:00       0.785        3.95       0.662
  jd55                 JUNCTION     0.210    0.686     0  02:44        1.44        4.72      18.764
  jd56                 JUNCTION     0.130    0.381     0  03:00       0.879        2.55       0.597
  jd59                 JUNCTION     0.126    0.666     0  02:59       0.867        3.91      24.687
  jd60                 JUNCTION     0.222    0.480     0  03:00        1.56        3.36       3.934
  jd61                 JUNCTION     0.252    0.285     0  03:00        1.79        2.02       0.418
  jd62                 JUNCTION     0.108    0.108     0  03:00       0.742       0.742       0.170
  jd63                 JUNCTION     0.141    0.141     0  03:00       0.965       0.965       0.272
  jd64                 JUNCTION     0.116    0.288     0  03:00       0.807        1.99      23.044
  jd65                 JUNCTION     1.642    1.642     0  03:00        13.6        13.6       0.388
  jd66                 JUNCTION     0.268    0.790     0  03:00        1.91        5.51       6.052
  jd69                 JUNCTION     0.511    0.525     0  03:00        3.53        3.63       0.566
  jd79                 JUNCTION     0.458    0.812     0  03:00        3.26         5.6       3.229
  jd80                 JUNCTION     0.503    0.669     0  03:00        3.61        5.08       1.335
  jd81                 JUNCTION     0.374    0.374     0  03:00        2.73        2.73       0.125
  jd83                 JUNCTION     0.437    0.583     0  03:00        2.98        4.13       2.091
  jd84                 JUNCTION     0.558    0.558     0  03:00         3.8         3.8       0.416
  jd85                 JUNCTION     0.126    0.207     0  03:00        0.84         1.4       6.403
  jd87                 JUNCTION     0.101    0.240     0  03:00       0.683        1.67       4.580
  jd89                 JUNCTION     0.112    0.112     0  03:00       0.791       0.791       0.561
  jd90                 JUNCTION     0.118    0.118     0  03:00       0.811       0.811       0.318
  jd92                 JUNCTION     0.100    0.100     0  03:00       0.682       0.682       0.312
  jd93                 JUNCTION     0.194    0.432     0  03:00        1.46        3.15       0.628
  jd94                 JUNCTION     0.014    0.245     0  03:00      0.0934         1.7       0.832
  jd95                 JUNCTION     0.026    0.236     0  03:00       0.176        1.62       0.782
  jd96                 JUNCTION     0.207    0.272     0  03:00        1.42        1.87       5.408
  jd97                 JUNCTION     0.211    0.211     0  03:00        1.45        1.45       0.197
  jd98                 JUNCTION     0.118    0.118     0  03:00       0.804       0.804       0.350
  jd99                 JUNCTION     0.059    0.203     0  03:00       0.398        1.38       4.222
  jd101                JUNCTION     0.157    0.299     0  03:00        1.06        2.09       0.177
  jd102                JUNCTION     0.145    0.145     0  03:00        1.03        1.03       0.513
  jd103                JUNCTION     0.105    0.105     0  03:00       0.721       0.721       0.164
  jd106                JUNCTION     0.086    0.451     0  03:00       0.566        3.21      13.608
  jd107                JUNCTION     0.121    0.390     0  03:00       0.817         2.7       0.669
  jd108                JUNCTION     0.134    0.134     0  03:00       0.921       0.941       7.489
  jd109                JUNCTION     0.212    0.212     0  03:00        1.48        1.48       0.152
  jd110                JUNCTION     0.175    0.259     0  03:00        1.23        1.81       9.075
  jd111                JUNCTION     0.142    0.142     0  03:00        0.98        0.98       0.286
  jd112                JUNCTION     0.157    0.455     0  03:00        1.09        3.15       0.265
  jd113                JUNCTION     0.115    0.115     0  03:00       0.794       0.794       0.055
  jd114                JUNCTION     0.129    1.570     0  03:00       0.889        11.4       2.820
  jd117                JUNCTION     0.116    0.444     0  02:28       0.816        2.82       5.858
  jd118                JUNCTION     0.112    0.112     0  03:00       0.747       0.747       0.055
  jd120                JUNCTION     0.134    0.134     0  03:00       0.932       0.932       0.278
  jd121                JUNCTION     0.164    0.164     0  03:00        1.18        1.18       0.334
  jd122                JUNCTION     0.388    1.609     0  03:00        2.73        18.3       3.118
  jd123                JUNCTION     0.405    1.752     0  03:00        2.83        17.6       4.094
  jd124                JUNCTION     0.544    1.472     0  02:58        4.03        11.9       0.481
  jd125                JUNCTION     0.498    1.740     0  03:00        3.89        13.5       0.350
  jd126                JUNCTION     0.712    1.009     0  03:00        5.67        7.94       1.296
  jd135                JUNCTION     0.214    0.214     0  03:00        1.46        1.46       0.233
  jd136                JUNCTION     0.184    0.299     0  03:00        1.28        2.07       0.726
  psk1                 OUTFALL      0.000    0.215     0  03:00           0        1.48       0.000
  psk2                 OUTFALL      0.000    0.463     0  03:01           0         3.6       0.000
  psk3                 OUTFALL      0.000    0.806     0  03:01           0           6       0.000
  psk4                 OUTFALL      0.000    0.000     0  00:00           0           0       0.000 ltr
  psk5                 OUTFALL      0.000    0.204     0  03:00           0        1.54       0.000
  psk6                 OUTFALL      0.000    0.176     0  03:00           0        1.26       0.000
  psk7                 OUTFALL      0.000    1.211     0  03:00           0        10.5       0.000
  psk8                 OUTFALL      0.000    0.000     0  00:00           0           0       0.000 ltr
  
  
  **********************
  Node Surcharge Summary
  **********************
  
  Surcharging occurs when water rises above the top of the highest conduit.
  ---------------------------------------------------------------------
                                               Max. Height   Min. Depth
                                   Hours       Above Crown    Below Rim
  Node                 Type      Surcharged         Meters       Meters
  ---------------------------------------------------------------------
  jd3                  JUNCTION        8.52          2.200        0.000
  jd8                  JUNCTION        2.20          2.200        0.000
  jd9                  JUNCTION        0.46          2.200        0.000
  jd10                 JUNCTION        8.62          2.400        0.000
  jd12                 JUNCTION        8.69          2.400        0.000
  jd17                 JUNCTION        2.71          2.200        0.000
  jd21                 JUNCTION        8.55          2.200        0.000
  jd22                 JUNCTION        8.40          1.323        1.077
  jd28                 JUNCTION        8.81          2.400        0.000
  jd31                 JUNCTION        8.30          2.200        0.000
  jd32                 JUNCTION        8.73          2.200        0.000
  jd35                 JUNCTION        9.01          2.400        0.000
  jd39                 JUNCTION        8.53          2.000        0.000
  jd41                 JUNCTION        8.14          1.000        0.000
  jd45                 JUNCTION        8.62          2.000        0.000
  jd50                 JUNCTION        8.85          2.200        0.000
  jd51                 JUNCTION        8.08          1.350        0.000
  jd59                 JUNCTION        8.00          1.500        0.000
  jd60                 JUNCTION        8.71          2.400        0.000
  jd64                 JUNCTION        8.03          1.800        0.000
  jd65                 JUNCTION        0.42          2.400        0.000
  jd66                 JUNCTION        8.59          2.200        0.000
  jd79                 JUNCTION        8.76          2.400        0.000
  jd80                 JUNCTION        3.79          2.400        0.000
  jd83                 JUNCTION        9.04          2.400        0.000
  jd85                 JUNCTION        8.63          2.400        0.000
  jd87                 JUNCTION        8.66          2.400        0.000
  jd96                 JUNCTION        8.73          2.200        0.000
  jd99                 JUNCTION        8.58          2.400        0.000
  jd106                JUNCTION        8.31          2.000        0.000
  jd108                JUNCTION        8.68          0.210        1.790
  jd110                JUNCTION        8.62          2.000        0.000
  jd114                JUNCTION        8.65          2.000        0.000
  jd117                JUNCTION        8.53          2.200        0.000
  jd122                JUNCTION        8.56          2.200        0.000
  jd123                JUNCTION        8.50          2.200        0.000
  jd124                JUNCTION        9.26          2.400        0.000
  jd126                JUNCTION        9.03          2.400        0.000
  
  
  *********************
  Node Flooding Summary
  *********************
  
  Flooding refers to all water that overflows a node, whether it ponds or not.
  --------------------------------------------------------------------------
                                                             Total   Maximum
                                 Maximum   Time of Max       Flood    Ponded
                        Hours       Rate    Occurrence      Volume     Depth
  Node                 Flooded       CMS   days hr:min    10^6 ltr    Meters
  --------------------------------------------------------------------------
  jd3                     8.52     1.057      0  03:00       8.649     0.000
  jd8                     0.01     0.103      0  02:34       0.001     0.000
  jd9                     0.01     0.139      0  02:46       0.001     0.000
  jd10                    8.62     0.281      0  03:00       1.854     0.000
  jd12                    8.69     0.509      0  03:00       3.505     0.000
  jd17                    0.47     0.881      0  02:40       0.354     0.000
  jd21                    8.31     1.076      0  03:00       8.028     0.000
  jd28                    8.81     0.765      0  03:00       5.910     0.000
  jd31                    0.01     0.715      0  02:41       0.008     0.000
  jd32                    8.72     1.310      0  03:00      10.093     0.000
  jd35                    9.00     1.260      0  03:00       9.455     0.000
  jd39                    8.53     1.779      0  03:00      13.377     0.000
  jd41                    8.14     1.990      0  03:00      13.270     0.000
  jd45                    8.62     1.507      0  03:00      11.321     0.000
  jd50                    8.84     2.456      0  03:00      23.151     0.000
  jd51                    8.08     0.850      0  03:00       4.636     0.000
  jd59                    8.00     0.604      0  03:00       3.133     0.000
  jd60                    8.71     0.480      0  03:00       3.236     0.000
  jd64                    0.01     0.258      0  03:00       0.006     0.000
  jd65                    0.38     0.547      0  03:00       0.442     0.000
  jd66                    8.59     0.789      0  03:00       5.198     0.000
  jd79                    2.23     0.594      0  03:00       1.338     0.000
  jd80                    0.62     0.511      0  03:00       0.776     0.000
  jd83                    9.04     0.583      0  03:00       4.049     0.000
  jd85                    8.62     0.207      0  03:00       1.312     0.000
  jd87                    8.65     0.240      0  03:00       1.599     0.000
  jd96                    8.72     0.271      0  03:00       1.771     0.000
  jd99                    8.58     0.203      0  03:00       1.329     0.000
  jd106                   8.31     0.451      0  03:00       2.824     0.000
  jd110                   8.62     0.259      0  03:00       1.657     0.000
  jd114                   8.54     1.570      0  03:00      10.959     0.000
  jd117                   0.01     0.334      0  02:28       0.003     0.000
  jd122                   8.50     1.608      0  03:00      17.644     0.000
  jd123                   6.63     1.436      0  03:00       8.049     0.000
  jd124                   9.26     1.472      0  02:58      11.887     0.000
  jd126                   9.03     1.009      0  03:00       7.842     0.000
  
  
  ***********************
  Outfall Loading Summary
  ***********************
  
  -----------------------------------------------------------
                         Flow       Avg       Max       Total
                         Freq      Flow      Flow      Volume
  Outfall Node           Pcnt       CMS       CMS    10^6 ltr
  -----------------------------------------------------------
  psk1                  96.30     0.051     0.215       1.477
  psk2                  96.24     0.123     0.463       3.601
  psk3                  96.36     0.205     0.806       5.995
  psk4                   0.00     0.000     0.000       0.000
  psk5                  96.36     0.053     0.204       1.541
  psk6                  96.24     0.043     0.176       1.255
  psk7                  96.36     0.358     1.211      10.547
  psk8                   0.00     0.000     0.000       0.000
  -----------------------------------------------------------
  System                72.23     0.833     0.000      24.415
  
  
  ********************
  Link Flow Summary
  ********************
  
  -----------------------------------------------------------------------------
                                 Maximum  Time of Max   Maximum    Max/    Max/
                                  |Flow|   Occurrence   |Veloc|    Full    Full
  Link                 Type          CMS  days hr:min     m/sec    Flow   Depth
  -----------------------------------------------------------------------------
  GQ1                  CONDUIT     0.116     0  03:02      1.56    0.30    0.31
  GQ2                  CONDUIT     0.294     0  03:02      1.76    0.14    0.27
  GQ3                  CONDUIT     0.215     0  03:00      4.49    0.01    0.06
  GQ4                  CONDUIT     0.343     0  03:01      1.24    0.67    1.00
  GQ5                  CONDUIT     0.373     0  03:01      1.01    0.31    0.69
  GQ6                  CONDUIT     0.110     0  03:00      1.03    0.05    0.27
  GQ7                  CONDUIT     1.256     0  03:02      3.57    0.75    0.75
  GQ8                  CONDUIT     0.196     0  03:00      0.85    0.19    0.47
  GQ9                  CONDUIT     0.532     0  03:00      1.55    0.19    0.65
  GQ10                 CONDUIT     1.135     0  02:47      4.10    1.04    1.00
  GQ11                 CONDUIT     0.072     0  03:00      1.56    0.08    0.24
  GQ12                 CONDUIT     0.074     0  03:00      0.42    0.08    0.60
  GQ13                 CONDUIT     0.053     0  03:00      0.44    0.03    0.43
  GQ14                 CONDUIT     0.025     0  03:00      0.72    0.04    0.12
  GQ15                 CONDUIT     0.071     0  03:00      3.39    0.29    0.34
  GQ16                 CONDUIT     0.405     0  03:01      2.94    0.20    0.23
  GQ17                 CONDUIT     0.124     0  03:00      1.02    0.04    0.30
  GQ18                 CONDUIT     0.846     0  03:00      2.15    3.81    0.73
  GQ19                 CONDUIT     0.165     0  03:00      1.25    0.02    0.23
  GQ20                 CONDUIT     0.036     0  03:00      0.39    0.02    0.18
  GQ21                 CONDUIT     0.132     0  03:00      1.20    0.04    0.20
  GQ22                 CONDUIT     0.134     0  03:00      1.37    0.04    0.18
  GQ23                 CONDUIT     0.227     0  03:01      1.73    0.11    0.22
  GQ24                 CONDUIT     0.339     0  03:01      1.00    0.17    0.64
  GQ25                 CONDUIT     0.234     0  03:00      2.82    0.26    0.33
  GQ26                 CONDUIT     0.181     0  03:00      2.13    0.21    0.34
  GQ27                 CONDUIT     0.290     0  03:00      1.57    0.29    0.68
  GQ28                 CONDUIT     0.137     0  03:00      0.41    0.15    0.63
  GQ29                 CONDUIT     0.567     0  02:41      1.13    0.26    1.00
  GQ30                 CONDUIT     0.517     0  03:00      1.83    0.63    1.00
  GQ31                 CONDUIT     0.205     0  03:00      1.00    0.27    0.68
  GQ32                 CONDUIT     0.260     0  03:01      2.44    0.42    0.40
  GQ33                 CONDUIT     0.667     0  03:01      2.98    0.47    0.74
  GQ34                 CONDUIT     0.124     0  03:01      1.22    0.19    0.39
  GQ35                 CONDUIT     0.253     0  03:00      1.88    0.47    0.48
  GQ36                 CONDUIT     0.379     0  03:00      2.51    0.47    0.53
  GQ37                 CONDUIT     0.161     0  03:01      0.81    0.23    0.66
  GQ38                 CONDUIT     0.061     0  03:01      0.35    0.09    0.60
  GQ39                 CONDUIT     0.283     0  03:00      1.32    0.36    0.71
  GQ40                 CONDUIT     0.186     0  03:01      1.94    0.23    0.37
  GQ41                 CONDUIT     0.548     0  03:01      0.98    0.25    0.67
  GQ42                 CONDUIT     0.824     0  03:04      1.94    0.61    0.79
  GQ43                 CONDUIT     0.999     0  03:03      3.84    0.45    0.52
  GQ44                 CONDUIT     0.741     0  03:03      1.47    0.78    1.00
  GQ45                 CONDUIT     0.362     0  03:00      1.81    0.15    0.52
  GQ46                 CONDUIT     0.682     0  03:05      1.92    0.64    0.89
  GQ47                 CONDUIT     0.059     0  03:00      0.35    0.06    0.58
  GQ48                 CONDUIT     0.059     0  03:00      0.34    0.06    0.58
  GQ49                 CONDUIT     0.215     0  03:00      1.22    0.08    0.60
  GQ50                 CONDUIT     0.062     0  03:00      0.87    0.08    0.30
  GQ51                 CONDUIT     0.227     0  03:00      2.07    0.35    0.41
  GQ52                 CONDUIT     0.139     0  03:03      0.74    0.19    0.65
  GQ53                 CONDUIT     1.177     0  03:02      1.84    0.53    0.76
  GQ54                 CONDUIT     0.144     0  03:00      0.78    0.12    0.62
  GQ55                 CONDUIT     0.114     0  03:00      0.65    0.08    0.59
  GQ56                 CONDUIT     1.335     0  03:01      3.93    0.73    0.64
  GQ57                 CONDUIT     0.168     0  03:01      0.82    0.11    0.43
  GQ58                 CONDUIT     0.351     0  03:01      1.09    0.11    0.61
  GQ59                 CONDUIT     0.755     0  03:04      1.78    0.63    0.79
  GQ60                 CONDUIT     0.650     0  02:52      0.61    0.16    0.61
  GQ61                 CONDUIT     0.091     0  03:00      0.28    0.01    0.54
  GQ62                 CONDUIT     0.186     0  03:00      0.34    0.02    0.55
  GQ63                 CONDUIT     0.421     0  03:00      0.71    0.01    0.54
  GQ64                 CONDUIT     0.033     0  03:00      1.10    0.03    0.17
  GQ65                 CONDUIT     0.014     0  03:00      0.27    0.03    0.25
  GQ66                 CONDUIT     0.055     0  03:00      0.39    0.02    0.54
  GQ67                 CONDUIT     0.343     0  02:59      0.30    0.24    1.00
  GQ68                 CONDUIT     0.233     0  03:00      0.48    0.07    0.59
  GQ69                 CONDUIT     0.522     0  03:00      1.52    0.19    0.65
  GQ70                 CONDUIT     0.176     0  03:00      5.86    0.03    0.11
  GQ71                 CONDUIT     0.204     0  03:00      4.25    0.05    0.15
  GQ72                 CONDUIT     1.211     0  03:00      4.61    0.29    0.37
  GQ73                 CONDUIT     0.463     0  03:01      8.77    0.03    0.12
  GQ74                 CONDUIT     0.109     0  03:00      1.05    0.02    0.19
  GQ75                 CONDUIT     0.104     0  03:01      0.23    0.03    0.56
  GQ76                 CONDUIT     0.806     0  03:01      4.42    0.17    0.28
  GQ77                 CONDUIT     0.000     0  00:00      0.00    0.00    0.13
  GQ78                 CONDUIT     0.357     0  03:01      1.65    0.39    0.72
  GQ79                 CONDUIT     0.218     0  03:00      1.08    0.47    0.67
  GQ80                 CONDUIT     0.167     0  03:01      0.77    0.28    0.72
  GQ81                 CONDUIT     0.494     0  02:40      1.75    3.13    1.00
  GQ82                 CONDUIT     0.179     0  03:00      0.97    0.12    0.62
  GQ83                 CONDUIT     0.193     0  03:00      2.16    0.12    0.35
  GQ84                 CONDUIT     0.408     0  03:00      2.28    0.32    0.62
  GQ85                 CONDUIT     0.146     0  03:00      0.69    0.25    0.70
  GQ86                 CONDUIT     0.060     0  03:00      0.39    0.03    0.56
  GQ87                 CONDUIT     0.021     0  03:00      0.13    0.03    0.56
  GQ88                 CONDUIT     0.139     0  03:00      0.76    0.12    0.62
  GQ89                 CONDUIT     0.110     0  03:00      0.59    0.14    0.63
  GQ90                 CONDUIT     0.116     0  03:00      0.72    0.12    0.62
  GQ91                 CONDUIT     0.099     0  03:00      0.54    0.12    0.62
  GQ92                 CONDUIT     0.233     0  03:01      1.44    0.33    0.36
  GQ93                 CONDUIT     0.242     0  03:02      1.27    0.21    0.41
  GQ94                 CONDUIT     0.422     0  03:02      1.98    0.50    0.49
  GQ95                 CONDUIT     0.064     0  03:00      0.23    0.02    0.54
  GQ96                 CONDUIT     0.210     0  03:00      1.08    0.36    0.41
  GQ97                 CONDUIT     0.117     0  03:00      1.57    0.21    0.31
  GQ98                 CONDUIT     0.144     0  03:00      0.74    0.20    0.65
  GQ99                 CONDUIT     0.205     0  03:00      0.48    0.01    0.54
  GQ100                CONDUIT     0.142     0  03:00      2.21    0.24    0.28
  GQ101                CONDUIT     0.105     0  03:00      0.60    0.08    0.59
  GQ102                CONDUIT     0.396     0  03:00      1.22    0.12    0.62
  GQ103                CONDUIT     0.196     0  03:00      0.94    0.30    0.69
  GQ104                CONDUIT     0.318     0  03:01      1.60    0.23    0.66
  GQ105                CONDUIT     0.512     0  02:29      1.02    1.63    1.00
  GQ106                CONDUIT     0.116     0  03:00      0.64    0.12    0.62
  GQ107                CONDUIT     0.403     0  03:00      1.88    0.36    0.71
  GQ108                CONDUIT     0.829     0  03:08      1.65    1.00    1.00
  GQ109                CONDUIT     0.085     0  03:00      1.09    0.12    0.32
  GQ110                CONDUIT     0.136     0  03:00      0.50    0.02    0.55
  GQ111                CONDUIT     0.127     0  03:00      0.70    0.12    0.61
  GQ112                CONDUIT     0.384     0  03:00      2.28    0.07    0.21
  GQ113                CONDUIT     0.211     0  03:00      2.80    0.16    0.31
  GQ114                CONDUIT     0.134     0  03:00      0.28    0.05    0.59
  GQ115                CONDUIT     0.058     0  03:00      0.84    0.01    0.12
  GQ116                CONDUIT     0.084     0  03:00      0.19    0.01    0.54
  GQ117                CONDUIT     0.298     0  03:00      3.47    0.19    0.23
  GQ118                CONDUIT     0.115     0  03:00      1.49    0.04    0.23
  GQ119                CONDUIT     1.067     0  03:02      2.68    0.46    0.74
  GQ120                CONDUIT     0.000     0  00:00      0.00    0.00    0.50
  GQ121                CONDUIT     0.395     0  03:00      0.79    0.28    1.00
  GQ122                CONDUIT     0.168     0  03:00      1.48    0.03    0.56
  GQ123                CONDUIT     0.112     0  03:00      1.00    0.05    0.58
  GQ124                CONDUIT     0.070     0  03:00      0.85    0.03    0.24
  GQ125                CONDUIT     0.133     0  03:00      0.71    0.15    0.63
  GQ126                CONDUIT     0.163     0  03:00      0.86    0.16    0.63
  GQ127                CONDUIT     0.349     0  03:03      1.49    0.45    0.47
  GQ128                CONDUIT     0.558     0  03:01      2.35    0.12    0.28
  GQ129                CONDUIT     0.691     0  03:06      1.41    0.53    0.94
  GQ130                CONDUIT     0.940     0  02:57      3.39    0.88    1.00
  GQ131                CONDUIT     0.299     0  03:00      1.41    0.35    0.70
  
  
  ***************************
  Flow Classification Summary
  ***************************
  
  -------------------------------------------------------------------------------------
                      Adjusted    ---------- Fraction of Time in Flow Class ---------- 
                       /Actual         Up    Down  Sub   Sup   Up    Down  Norm  Inlet 
  Conduit               Length    Dry  Dry   Dry   Crit  Crit  Crit  Crit  Ltd   Ctrl  
  -------------------------------------------------------------------------------------
  GQ1                     1.00   0.04  0.00  0.00  0.03  0.94  0.00  0.00  0.00  0.00
  GQ2                     1.00   0.04  0.00  0.00  0.05  0.92  0.00  0.00  0.91  0.00
  GQ3                     1.00   0.04  0.00  0.00  0.00  0.96  0.00  0.00  0.21  0.00
  GQ4                     1.00   0.04  0.00  0.00  0.96  0.00  0.00  0.00  0.82  0.00
  GQ5                     1.00   0.04  0.00  0.00  0.96  0.00  0.00  0.00  0.90  0.00
  GQ6                     1.00   0.04  0.00  0.00  0.96  0.00  0.00  0.00  0.91  0.00
  GQ7                     1.00   0.04  0.00  0.00  0.00  0.96  0.00  0.00  0.07  0.00
  GQ8                     1.00   0.04  0.00  0.00  0.96  0.00  0.00  0.00  0.89  0.00
  GQ9                     1.00   0.04  0.00  0.00  0.96  0.01  0.00  0.00  0.91  0.00
  GQ10                    1.00   0.04  0.00  0.00  0.67  0.29  0.00  0.00  0.86  0.00
  GQ11                    1.00   0.04  0.00  0.00  0.35  0.62  0.00  0.00  0.91  0.00
  GQ12                    1.00   0.04  0.00  0.00  0.95  0.01  0.00  0.00  0.91  0.00
  GQ13                    1.00   0.04  0.00  0.00  0.96  0.00  0.00  0.00  0.91  0.00
  GQ14                    1.00   0.04  0.00  0.00  0.96  0.00  0.00  0.00  0.00  0.00
  GQ15                    1.00   0.04  0.00  0.00  0.00  0.96  0.00  0.00  0.01  0.00
  GQ16                    1.00   0.04  0.00  0.00  0.01  0.96  0.00  0.00  0.00  0.00
  GQ17                    1.00   0.04  0.00  0.00  0.86  0.10  0.00  0.00  0.91  0.00
  GQ18                    1.00   0.04  0.00  0.00  0.96  0.00  0.00  0.00  0.06  0.00
  GQ19                    1.00   0.04  0.00  0.00  0.83  0.13  0.00  0.00  0.91  0.00
  GQ20                    1.00   0.04  0.00  0.00  0.96  0.00  0.00  0.00  0.91  0.00
  GQ21                    1.00   0.04  0.00  0.00  0.30  0.67  0.00  0.00  0.91  0.00
  GQ22                    1.00   0.04  0.00  0.00  0.08  0.89  0.00  0.00  0.91  0.00
  GQ23                    1.00   0.04  0.00  0.00  0.01  0.95  0.00  0.00  0.09  0.00
  GQ24                    1.00   0.04  0.00  0.00  0.96  0.00  0.00  0.00  0.91  0.00
  GQ25                    1.00   0.04  0.00  0.00  0.00  0.96  0.00  0.00  0.01  0.00
  GQ26                    1.00   0.04  0.00  0.00  0.00  0.96  0.00  0.00  0.87  0.00
  GQ27                    1.00   0.04  0.00  0.00  0.88  0.08  0.00  0.00  0.91  0.00
  GQ28                    1.00   0.04  0.00  0.00  0.96  0.00  0.00  0.00  0.91  0.00
  GQ29                    1.00   0.04  0.00  0.00  0.96  0.00  0.00  0.00  0.13  0.00
  GQ30                    1.00   0.04  0.00  0.00  0.94  0.02  0.00  0.00  0.11  0.00
  GQ31                    1.00   0.04  0.00  0.00  0.96  0.00  0.00  0.00  0.91  0.00
  GQ32                    1.00   0.04  0.00  0.00  0.01  0.96  0.00  0.00  0.01  0.00
  GQ33                    1.00   0.04  0.00  0.00  0.87  0.10  0.00  0.00  0.91  0.00
  GQ34                    1.00   0.04  0.00  0.00  0.96  0.00  0.00  0.00  0.91  0.00
  GQ35                    1.00   0.04  0.00  0.00  0.01  0.96  0.00  0.00  0.65  0.00
  GQ36                    1.00   0.04  0.00  0.00  0.00  0.96  0.00  0.00  0.87  0.00
  GQ37                    1.00   0.04  0.00  0.00  0.96  0.00  0.00  0.00  0.91  0.00
  GQ38                    1.00   0.04  0.00  0.00  0.96  0.00  0.00  0.00  0.91  0.00
  GQ39                    1.00   0.04  0.00  0.00  0.94  0.02  0.00  0.00  0.91  0.00
  GQ40                    1.00   0.04  0.00  0.00  0.01  0.95  0.00  0.00  0.91  0.00
  GQ41                    1.00   0.04  0.00  0.00  0.96  0.00  0.00  0.00  0.91  0.00
  GQ42                    1.00   0.04  0.00  0.00  0.96  0.00  0.00  0.00  0.89  0.00
  GQ43                    1.00   0.04  0.00  0.00  0.01  0.96  0.00  0.00  0.91  0.00
  GQ44                    1.00   0.04  0.00  0.00  0.96  0.00  0.00  0.00  0.81  0.00
  GQ45                    1.00   0.04  0.00  0.00  0.12  0.85  0.00  0.00  0.91  0.00
  GQ46                    1.00   0.04  0.00  0.00  0.14  0.82  0.00  0.00  0.76  0.00
  GQ47                    1.00   0.04  0.00  0.00  0.96  0.00  0.00  0.00  0.91  0.00
  GQ48                    1.00   0.04  0.00  0.00  0.96  0.00  0.00  0.00  0.91  0.00
  GQ49                    1.00   0.04  0.00  0.00  0.95  0.01  0.00  0.00  0.91  0.00
  GQ50                    1.00   0.04  0.00  0.00  0.96  0.00  0.00  0.00  0.91  0.00
  GQ51                    1.00   0.04  0.00  0.00  0.00  0.96  0.00  0.00  0.69  0.00
  GQ52                    1.00   0.04  0.00  0.00  0.96  0.00  0.00  0.00  0.82  0.00
  GQ53                    1.00   0.04  0.00  0.00  0.96  0.00  0.00  0.00  0.91  0.00
  GQ54                    1.00   0.04  0.00  0.00  0.96  0.00  0.00  0.00  0.91  0.00
  GQ55                    1.00   0.04  0.00  0.00  0.96  0.01  0.00  0.00  0.91  0.00
  GQ56                    1.00   0.04  0.00  0.00  0.00  0.96  0.00  0.00  0.74  0.00
  GQ57                    1.00   0.04  0.00  0.00  0.96  0.00  0.00  0.00  0.91  0.00
  GQ58                    1.00   0.04  0.00  0.00  0.96  0.01  0.00  0.00  0.91  0.00
  GQ59                    1.00   0.04  0.00  0.00  0.96  0.00  0.00  0.00  0.91  0.00
  GQ60                    1.00   0.04  0.00  0.00  0.96  0.00  0.00  0.00  0.16  0.00
  GQ61                    1.00   0.04  0.00  0.00  0.96  0.00  0.00  0.00  0.91  0.00
  GQ62                    1.00   0.04  0.00  0.00  0.96  0.00  0.00  0.00  0.91  0.00
  GQ63                    1.00   0.04  0.00  0.00  0.95  0.02  0.00  0.00  0.91  0.00
  GQ64                    1.00   0.04  0.00  0.00  0.33  0.63  0.00  0.00  0.91  0.00
  GQ65                    1.00   0.04  0.00  0.00  0.96  0.00  0.00  0.00  0.91  0.00
  GQ66                    1.00   0.04  0.00  0.00  0.95  0.01  0.00  0.00  0.91  0.00
  GQ67                    1.00   0.04  0.00  0.00  0.96  0.00  0.00  0.00  0.08  0.00
  GQ68                    1.00   0.04  0.00  0.00  0.96  0.00  0.00  0.00  0.91  0.00
  GQ69                    1.00   0.04  0.00  0.00  0.94  0.02  0.00  0.00  0.91  0.00
  GQ70                    1.00   0.04  0.00  0.00  0.00  0.96  0.00  0.00  0.01  0.00
  GQ71                    1.00   0.04  0.00  0.00  0.00  0.96  0.00  0.00  0.14  0.00
  GQ72                    1.00   0.04  0.00  0.00  0.00  0.96  0.00  0.00  0.18  0.00
  GQ73                    1.00   0.04  0.00  0.00  0.00  0.96  0.00  0.00  0.03  0.00
  GQ74                    1.00   0.04  0.00  0.00  0.86  0.10  0.00  0.00  0.91  0.00
  GQ75                    1.00   0.04  0.00  0.00  0.96  0.00  0.00  0.00  0.91  0.00
  GQ76                    1.00   0.04  0.00  0.00  0.00  0.96  0.00  0.00  0.15  0.00
  GQ77                    1.00   0.04  0.96  0.00  0.00  0.00  0.00  0.00  0.00  0.00
  GQ78                    1.00   0.04  0.00  0.00  0.96  0.00  0.00  0.00  0.91  0.00
  GQ79                    1.00   0.04  0.00  0.00  0.96  0.00  0.00  0.00  0.11  0.00
  GQ80                    1.00   0.04  0.00  0.00  0.96  0.00  0.00  0.00  0.86  0.00
  GQ81                    1.00   0.04  0.00  0.00  0.96  0.00  0.00  0.00  0.09  0.00
  GQ82                    1.00   0.04  0.00  0.00  0.94  0.03  0.00  0.00  0.90  0.00
  GQ83                    1.00   0.04  0.00  0.00  0.00  0.96  0.00  0.00  0.91  0.00
  GQ84                    1.00   0.04  0.00  0.00  0.24  0.72  0.00  0.00  0.91  0.00
  GQ85                    1.00   0.04  0.00  0.00  0.96  0.00  0.00  0.00  0.85  0.00
  GQ86                    1.00   0.04  0.00  0.00  0.96  0.01  0.00  0.00  0.91  0.00
  GQ87                    1.00   0.04  0.00  0.00  0.96  0.00  0.00  0.00  0.91  0.00
  GQ88                    1.00   0.04  0.00  0.00  0.96  0.00  0.00  0.00  0.91  0.00
  GQ89                    1.00   0.04  0.00  0.00  0.96  0.01  0.00  0.00  0.91  0.00
  GQ90                    1.00   0.04  0.00  0.00  0.94  0.02  0.00  0.00  0.91  0.00
  GQ91                    1.00   0.04  0.00  0.00  0.95  0.01  0.00  0.00  0.91  0.00
  GQ92                    1.00   0.04  0.00  0.00  0.84  0.12  0.00  0.00  0.00  0.00
  GQ93                    1.00   0.04  0.00  0.00  0.96  0.00  0.00  0.00  0.91  0.00
  GQ94                    1.00   0.04  0.00  0.00  0.21  0.75  0.00  0.00  0.07  0.00
  GQ95                    1.00   0.04  0.00  0.00  0.96  0.00  0.00  0.00  0.91  0.00
  GQ96                    1.00   0.04  0.00  0.00  0.96  0.00  0.00  0.00  0.54  0.00
  GQ97                    1.00   0.04  0.00  0.00  0.00  0.96  0.00  0.00  0.29  0.00
  GQ98                    1.00   0.04  0.00  0.00  0.96  0.00  0.00  0.00  0.91  0.00
  GQ99                    1.00   0.04  0.00  0.00  0.95  0.01  0.00  0.00  0.91  0.00
  GQ100                   1.00   0.04  0.00  0.00  0.00  0.96  0.00  0.00  0.00  0.00
  GQ101                   1.00   0.04  0.00  0.00  0.95  0.01  0.00  0.00  0.91  0.00
  GQ102                   1.00   0.04  0.00  0.00  0.94  0.02  0.00  0.00  0.91  0.00
  GQ103                   1.00   0.04  0.00  0.00  0.96  0.00  0.00  0.00  0.91  0.00
  GQ104                   1.00   0.04  0.00  0.00  0.95  0.01  0.00  0.00  0.91  0.00
  GQ105                   1.00   0.04  0.00  0.00  0.96  0.00  0.00  0.00  0.10  0.00
  GQ106                   1.00   0.04  0.00  0.00  0.95  0.01  0.00  0.00  0.91  0.00
  GQ107                   1.00   0.04  0.00  0.00  0.93  0.03  0.00  0.00  0.91  0.00
  GQ108                   1.00   0.04  0.00  0.00  0.96  0.00  0.00  0.00  0.14  0.00
  GQ109                   1.00   0.04  0.00  0.00  0.87  0.10  0.00  0.00  0.91  0.00
  GQ110                   1.00   0.04  0.00  0.00  0.95  0.01  0.00  0.00  0.91  0.00
  GQ111                   1.00   0.04  0.00  0.00  0.95  0.01  0.00  0.00  0.91  0.00
  GQ112                   1.00   0.04  0.00  0.00  0.00  0.96  0.00  0.00  0.89  0.00
  GQ113                   1.00   0.04  0.00  0.00  0.00  0.96  0.00  0.00  0.89  0.00
  GQ114                   1.00   0.04  0.00  0.00  0.96  0.00  0.00  0.00  0.12  0.00
  GQ115                   1.00   0.04  0.00  0.00  0.94  0.03  0.00  0.00  0.91  0.00
  GQ116                   1.00   0.04  0.00  0.00  0.96  0.00  0.00  0.00  0.91  0.00
  GQ117                   1.00   0.04  0.00  0.00  0.00  0.96  0.00  0.00  0.00  0.00
  GQ118                   1.00   0.04  0.00  0.00  0.32  0.64  0.00  0.00  0.91  0.00
  GQ119                   1.00   0.04  0.00  0.00  0.92  0.05  0.00  0.00  0.91  0.00
  GQ120                   1.00   0.04  0.09  0.00  0.87  0.00  0.00  0.00  0.00  0.00
  GQ121                   1.00   0.04  0.00  0.00  0.95  0.01  0.00  0.00  0.12  0.00
  GQ122                   1.00   0.04  0.00  0.00  0.89  0.08  0.00  0.00  0.91  0.00
  GQ123                   1.00   0.04  0.00  0.00  0.89  0.08  0.00  0.00  0.91  0.00
  GQ124                   1.00   0.04  0.00  0.00  0.96  0.00  0.00  0.00  0.91  0.00
  GQ125                   1.00   0.04  0.00  0.00  0.95  0.01  0.00  0.00  0.91  0.00
  GQ126                   1.00   0.04  0.00  0.00  0.95  0.01  0.00  0.00  0.91  0.00
  GQ127                   1.00   0.04  0.00  0.00  0.96  0.00  0.00  0.00  0.57  0.00
  GQ128                   1.00   0.04  0.00  0.00  0.01  0.96  0.00  0.00  0.85  0.00
  GQ129                   1.00   0.04  0.00  0.00  0.96  0.00  0.00  0.00  0.84  0.00
  GQ130                   1.00   0.04  0.00  0.00  0.88  0.08  0.00  0.00  0.84  0.00
  GQ131                   1.00   0.04  0.00  0.00  0.96  0.00  0.00  0.00  0.91  0.00
  
  
  *************************
  Conduit Surcharge Summary
  *************************
  
  ----------------------------------------------------------------------------
                                                           Hours        Hours 
                         --------- Hours Full --------   Above Full   Capacity
  Conduit                Both Ends  Upstream  Dnstream   Normal Flow   Limited
  ----------------------------------------------------------------------------
  GQ4                         0.06      0.06      8.60      0.01         0.01
  GQ5                         0.01      0.01      8.52      0.01         0.01
  GQ9                         0.01      0.01      8.85      0.01         0.01
  GQ10                        0.42      0.42      8.94      0.09         0.01
  GQ12                        0.01      0.01      6.44      0.01         0.01
  GQ18                        0.01      0.01      2.20      3.77         0.01
  GQ24                        0.01      0.01      8.73      0.01         0.01
  GQ27                        0.01      0.01      8.40      0.01         0.01
  GQ28                        0.01      0.01      8.55      0.01         0.01
  GQ29                        8.30      8.30      8.55      0.01         0.01
  GQ30                        8.40      8.40      8.63      0.01         0.01
  GQ31                        0.01      0.01      9.01      0.01         0.01
  GQ33                        0.01      0.01      9.01      0.01         0.01
  GQ37                        0.01      0.01      8.81      0.01         0.01
  GQ38                        0.01      0.01      8.81      0.01         0.01
  GQ39                        0.01      0.01      6.44      0.01         0.01
  GQ41                        0.01      0.01      8.53      0.01         0.01
  GQ42                        0.01      0.01      8.59      0.01         0.01
  GQ44                        0.46      0.46      2.20      0.01         0.01
  GQ46                        0.01      0.01      0.46      0.01         0.01
  GQ47                        0.01      0.01      8.62      0.01         0.01
  GQ48                        0.01      0.01      8.69      0.01         0.01
  GQ49                        0.01      0.01      8.69      0.01         0.01
  GQ52                        0.01      0.01      8.30      0.01         0.01
  GQ53                        0.01      0.01      8.62      0.01         0.01
  GQ54                        0.01      0.01      8.71      0.01         0.01
  GQ55                        0.01      0.01      8.71      0.01         0.01
  GQ58                        0.01      0.01      8.45      0.01         0.01
  GQ59                        0.01      0.01      8.45      0.01         0.01
  GQ61                        0.01      0.01      8.00      0.01         0.01
  GQ62                        0.01      0.01      8.08      0.01         0.01
  GQ63                        0.01      0.01      8.14      0.01         0.01
  GQ66                        0.01      0.01      8.17      0.01         0.01
  GQ67                        8.03      8.03      8.09      0.01         0.01
  GQ68                        0.01      0.01      8.32      0.01         0.01
  GQ69                        0.01      0.01      8.59      0.01         0.01
  GQ75                        0.01      0.01      8.31      0.01         0.01
  GQ78                        0.01      0.01      8.76      0.01         0.01
  GQ79                        0.01      0.01      8.76      0.01         0.01
  GQ80                        0.01      0.01      3.79      0.01         0.01
  GQ81                        3.70      3.79      6.44      2.72         2.11
  GQ82                        0.01      0.01      6.44      0.01         0.01
  GQ85                        0.01      0.01      9.04      0.01         0.01
  GQ86                        0.01      0.01      8.63      0.01         0.01
  GQ87                        0.01      0.01      8.63      0.01         0.01
  GQ88                        0.01      0.01      8.66      0.01         0.01
  GQ89                        0.01      0.01      8.39      0.01         0.01
  GQ90                        0.01      0.01      8.27      0.01         0.01
  GQ91                        0.01      0.01      8.47      0.01         0.01
  GQ95                        0.01      0.01      8.73      0.01         0.01
  GQ98                        0.01      0.01      8.58      0.01         0.01
  GQ99                        0.01      0.01      8.12      0.01         0.01
  GQ101                       0.01      0.01      8.48      0.01         0.01
  GQ102                       0.01      0.01      8.56      0.01         0.01
  GQ103                       0.01      0.01      8.67      0.01         0.01
  GQ104                       0.01      0.01      8.67      0.01         0.01
  GQ105                       8.50      8.50      8.56      6.24         0.01
  GQ106                       0.01      0.01      8.54      0.01         0.01
  GQ107                       0.01      0.01      8.54      0.01         0.01
  GQ108                       2.71      2.71      8.50      0.01         0.01
  GQ110                       0.01      0.01      8.31      0.01         0.01
  GQ111                       0.01      0.01      8.48      0.01         0.01
  GQ114                       0.01      0.01      8.68      0.01         0.01
  GQ116                       0.01      0.01      8.62      0.01         0.01
  GQ119                       0.01      0.01      8.71      0.01         0.01
  GQ120                       0.01      0.01      8.64      0.01         0.01
  GQ121                       8.53      8.53      8.71      0.01         0.01
  GQ122                       0.01      0.01      8.53      0.01         0.01
  GQ123                       0.01      0.01      8.55      0.01         0.01
  GQ125                       0.01      0.01      8.47      0.01         0.01
  GQ126                       0.01      0.01      8.48      0.01         0.01
  GQ129                       0.01      0.01      8.73      0.01         0.01
  GQ130                       0.21      0.21      9.26      0.01         0.01
  GQ131                       0.01      0.01      9.03      0.01         0.01
  

  Analysis begun on:  Sat Mar 25 16:20:43 2023
  Analysis ended on:  Sat Mar 25 16:20:46 2023
  Total elapsed time: 00:00:03