
  OWA STORM WATER MANAGEMENT MODEL - VERSION v5.1.14 (OWA 2022-07-31)
  --------------------------------------------------------------

  INP file created by DSDAConvertToSwmmTools 
  version 0.0.1 EcoVista 
  Title/Notes: 
  
  
  *********************************************************
  NOTE: The summary statistics displayed in this report are
  based on results found at every computational time step,  
  not just on results from each reporting time step.
  *********************************************************
  
  ****************
  Analysis Options
  ****************
  Flow Units ............... CMS
  Process Models:
    Rainfall/Runoff ........ YES
    RDII ................... NO
    Snowmelt ............... NO
    Groundwater ............ NO
    Flow Routing ........... YES
    Ponding Allowed ........ NO
    Water Quality .......... NO
  Infiltration Method ...... GREEN_AMPT
  Flow Routing Method ...... DYNWAVE
  Surcharge Method ......... EXTRAN
  Starting Date ............ 07/15/2020 00:00:00
  Ending Date .............. 07/15/2020 10:00:00
  Antecedent Dry Days ...... 0.0
  Report Time Step ......... 00:30:00
  Wet Time Step ............ 00:05:00
  Dry Time Step ............ 01:00:00
  Routing Time Step ........ 30.00 sec
  Variable Time Step ....... YES
  Maximum Trials ........... 8
  Number of Threads ........ 1
  Head Tolerance ........... 0.001500 m
  
  
  **************************        Volume         Depth
  Runoff Quantity Continuity     hectare-m            mm
  **************************     ---------       -------
  Total Precipitation ......       239.791        60.000
  Evaporation Loss .........         3.373         0.844
  Infiltration Loss ........        64.083        16.035
  Surface Runoff ...........       160.492        40.158
  Final Storage ............        12.568         3.145
  Continuity Error (%) .....        -0.302
  
  
  **************************        Volume        Volume
  Flow Routing Continuity        hectare-m      10^6 ltr
  **************************     ---------     ---------
  Dry Weather Inflow .......         0.000         0.000
  Wet Weather Inflow .......       159.730      1597.315
  Groundwater Inflow .......         0.000         0.000
  RDII Inflow ..............         0.000         0.000
  External Inflow ..........         0.000         0.000
  External Outflow .........        13.865       138.650
  Flooding Loss ............       143.397      1433.990
  Evaporation Loss .........         0.000         0.000
  Exfiltration Loss ........         0.000         0.000
  Initial Stored Volume ....         0.000         0.000
  Final Stored Volume ......         2.221        22.207
  Continuity Error (%) .....         0.155
  
  
  *************************
  Highest Continuity Errors
  *************************
  Node jd51 (3.42%)
  Node jd55 (2.90%)
  Node jd64 (2.77%)
  Node jd59 (2.70%)
  Node jd31 (2.57%)
  
  
  ***************************
  Time-Step Critical Elements
  ***************************
  Link GQ73 (96.28%)
  
  
  ********************************
  Highest Flow Instability Indexes
  ********************************
  Link GQ67 (14)
  Link GQ114 (11)
  Link GQ94 (4)
  Link GQ119 (4)
  Link GQ46 (3)
  
  
  *************************
  Routing Time Step Summary
  *************************
  Minimum Time Step           :     4.24 sec
  Average Time Step           :     7.01 sec
  Maximum Time Step           :    30.00 sec
  Percent in Steady State     :     0.00
  Average Iterations per Step :     3.52
  Percent Not Converging      :     6.96
  
  
  ***************************
  Subcatchment Runoff Summary
  ***************************
  
  ------------------------------------------------------------------------------------------------------------------------------
                            Total      Total      Total      Total     Imperv       Perv      Total       Total     Peak  Runoff
                           Precip      Runon       Evap      Infil     Runoff     Runoff     Runoff      Runoff   Runoff   Coeff
  Subcatchment                 mm         mm         mm         mm         mm         mm         mm    10^6 ltr      CMS
  ------------------------------------------------------------------------------------------------------------------------------
  1                         60.00       0.00       0.51      33.62      24.31       0.00      24.31        9.62     0.65   0.405
  2                         60.00       0.00       0.91      12.77      42.65       0.00      42.65       38.57     2.66   0.711
  3                         60.00       0.00       0.94      10.95      45.03       0.00      45.03       18.02     1.22   0.750
  4                         60.00       0.00       0.97       9.40      46.88       0.00      46.88        3.93     0.26   0.781
  5                         60.00       0.00       0.86      15.28      41.38       0.00      41.38        5.12     0.34   0.690
  6                         60.00       0.00       0.82      17.20      39.75       0.00      39.75        3.69     0.25   0.662
  7                         60.00       0.00       0.86      15.35      40.58       0.00      40.58       17.69     1.21   0.676
  8                         60.00       0.00       1.09       3.36      51.88       0.00      51.88        7.22     0.49   0.865
  9                         60.00       0.00       1.12       1.68      53.64       0.00      53.64        6.28     0.43   0.894
  10                        60.00       0.00       0.96       9.76      46.18       0.00      46.18       10.40     0.71   0.770
  11                        60.00       0.00       1.04       5.73      49.58       0.00      49.58       24.58     1.68   0.826
  12                        60.00       0.00       0.82      17.25      39.24       0.00      39.24       19.15     1.30   0.654
  13                        60.00       0.00       1.03       6.47      48.97       0.00      48.97       22.15     1.51   0.816
  14                        60.00       0.00       1.03       6.54      49.24       0.00      49.24        9.29     0.63   0.821
  15                        60.00       0.00       0.95      10.55      45.36       0.00      45.36       15.33     1.04   0.756
  16                        60.00       0.00       0.98       8.72      46.93       0.00      46.93       13.86     0.94   0.782
  17                        60.00       0.00       0.92      11.98      44.04       0.00      44.04       18.43     1.25   0.734
  18                        60.00       0.00       1.06       4.72      50.52       0.00      50.52       20.86     1.42   0.842
  19                        60.00       0.00       1.06       4.94      50.25       0.00      50.25       11.30     0.77   0.837
  20                        60.00       0.00       1.05       5.27      49.51       0.00      49.51       26.57     1.83   0.825
  21                        60.00       0.00       1.12       1.77      53.20       0.00      53.20       16.69     1.14   0.887
  22                        60.00       0.00       1.10       2.83      52.12       0.00      52.12        6.41     0.44   0.869
  23                        60.00       0.00       1.01       7.34      47.93       0.00      47.93       27.44     1.88   0.799
  24                        60.00       0.00       0.98       9.16      46.22       0.00      46.22        8.20     0.56   0.770
  25                        60.00       0.00       1.04       5.63      49.96       0.00      49.96       10.12     0.69   0.833
  26                        60.00       0.00       0.89      13.69      41.91       0.00      41.91       14.71     1.01   0.699
  27                        60.00       0.00       1.07       4.49      50.23       0.00      50.23       21.23     1.46   0.837
  28                        60.00       0.00       1.09       3.31      51.53       0.00      51.53       24.36     1.67   0.859
  29                        60.00       0.00       0.97       9.31      46.69       0.00      46.69       10.90     0.74   0.778
  30                        60.00       0.00       1.11       2.03      53.68       0.00      53.68        3.85     0.26   0.895
  31                        60.00       0.00       1.13       1.26      53.79       0.00      53.79       11.85     0.81   0.896
  32                        60.00       0.00       1.10       2.67      52.37       0.00      52.37       22.63     1.54   0.873
  33                        60.00       0.00       1.11       1.95      52.90       0.00      52.90       18.64     1.28   0.882
  34                        60.00       0.00       1.04       6.08      49.32       0.00      49.32       14.46     0.99   0.822
  35                        60.00       0.00       1.06       4.53      50.72       0.00      50.72       21.04     1.43   0.845
  36                        60.00       0.00       0.88      14.29      41.96       0.00      41.96       16.51     1.12   0.699
  37                        60.00       0.00       1.09       3.24      51.86       0.00      51.86       11.51     0.79   0.864
  38                        60.00       0.00       1.02       6.79      48.73       0.00      48.73       18.59     1.27   0.812
  39                        60.00       0.00       0.92      11.93      44.14       0.00      44.14       18.64     1.27   0.736
  40                        60.00       0.00       1.03       6.49      48.98       0.00      48.98       11.20     0.76   0.816
  41                        60.00       0.00       1.05       5.28      50.35       0.00      50.35        9.93     0.67   0.839
  42                        60.00       0.00       1.05       5.33      49.59       0.00      49.59       12.25     0.84   0.827
  43                        60.00       0.00       0.88      14.03      41.77       0.00      41.77       33.01     2.27   0.696
  44                        60.00       0.00       0.94      10.94      44.62       0.00      44.62       21.57     1.48   0.744
  45                        60.00       0.00       0.88      13.92      42.02       0.00      42.02       30.40     2.08   0.700
  46                        60.00       0.00       0.85      15.51      40.98       0.00      40.98       20.49     1.39   0.683
  47                        60.00       0.00       0.90      13.27      42.61       0.00      42.61       49.67     3.40   0.710
  48                        60.00       0.00       1.07       4.15      50.47       0.00      50.47       29.29     2.02   0.841
  49                        60.00       0.00       0.98       8.89      46.22       0.00      46.22       31.29     2.16   0.770
  50                        60.00       0.00       1.09       3.38      50.78       0.00      50.78       19.96     1.39   0.846
  51                        60.00       0.00       1.04       5.83      48.70       0.00      48.70        9.11     0.63   0.812
  52                        60.00       0.00       0.51      33.66      24.46       0.00      24.46       25.10     1.69   0.408
  53                        60.00       0.00       0.73      21.85      35.16       0.00      35.16       37.45     2.53   0.586
  54                        60.00       0.00       0.90      12.92      43.19       0.00      43.19       10.53     0.72   0.720
  55                        60.00       0.00       0.52      33.04      25.00       0.00      25.00       19.73     1.33   0.417
  56                        60.00       0.00       0.20      49.84       9.59       0.00       9.59        7.81     0.52   0.160
  57                        60.00       0.00       1.02       6.68      48.21       0.00      48.21       40.05     2.76   0.804
  58                        60.00       0.00       0.95      10.60      45.30       0.00      45.30        7.46     0.51   0.755
  59                        60.00       0.00       0.93      11.78      44.67       0.00      44.67        5.69     0.38   0.745
  60                        60.00       0.00       0.35      41.93      16.88       0.00      16.88        4.84     0.32   0.281
  61                        60.00       0.00       0.54      31.89      25.89       0.00      25.89        9.76     0.66   0.432
  62                        60.00       0.00       0.75      20.88      35.65       0.00      35.65       41.77     2.86   0.594
  63                        60.00       0.00       1.02       6.61      47.99       0.00      47.99       92.82     6.43   0.800
  64                        60.00       0.00       0.76      20.17      36.53       0.00      36.53        7.84     0.53   0.609
  65                        60.00       0.00       1.04       5.85      48.78       0.00      48.78       32.80     2.27   0.813
  66                        60.00       0.00       0.82      17.35      38.77       0.00      38.77        9.88     0.68   0.646
  67                        60.00       0.00       0.77      20.14      36.66       0.00      36.66       11.85     0.80   0.611
  68                        60.00       0.00       0.92      12.19      44.00       0.00      44.00        4.89     0.33   0.733
  69                        60.00       0.00       0.54      31.94      26.14       0.00      26.14        8.36     0.56   0.436
  70                        60.00       0.00       0.76      20.51      36.16       0.00      36.16       29.75     2.03   0.603
  71                        60.00       0.00       0.94      11.21      44.86       0.00      44.86        5.50     0.37   0.748
  72                        60.00       0.00       0.99       8.56      47.28       0.00      47.28        5.89     0.40   0.788
  73                        60.00       0.00       0.89      13.40      43.07       0.00      43.07        7.15     0.48   0.718
  74                        60.00       0.00       0.85      15.58      40.98       0.00      40.98        8.82     0.60   0.683
  75                        60.00       0.00       0.95      10.63      45.45       0.00      45.45        6.55     0.44   0.757
  76                        60.00       0.00       1.00       8.06      47.89       0.00      47.89        4.64     0.31   0.798
  77                        60.00       0.00       1.06       4.62      50.81       0.00      50.81        5.50     0.37   0.847
  78                        60.00       0.00       1.03       6.57      48.93       0.00      48.93        5.38     0.37   0.815
  79                        60.00       0.00       0.45      36.56      21.76       0.00      21.76       23.08     1.55   0.363
  80                        60.00       0.00       0.85      15.83      40.25       0.00      40.25       25.20     1.72   0.671
  81                        60.00       0.00       0.86      15.14      40.80       0.00      40.80       17.78     1.22   0.680
  82                        60.00       0.00       0.82      17.04      39.09       0.00      39.09       35.84     2.46   0.651
  83                        60.00       0.00       1.03       6.29      49.39       0.00      49.39        6.04     0.41   0.823
  84                        60.00       0.00       0.97       9.32      46.42       0.00      46.42        5.54     0.38   0.774
  85                        60.00       0.00       1.14       0.46      54.94       0.00      54.94        5.11     0.35   0.916
  86                        60.00       0.00       1.05       5.06      50.41       0.00      50.41        7.42     0.50   0.840
  87                        60.00       0.00       1.13       1.28      53.66       0.00      53.66        7.06     0.48   0.894
  88                        60.00       0.00       1.01       7.48      48.34       0.00      48.34        4.63     0.31   0.806
  89                        60.00       0.00       1.06       4.82      50.74       0.00      50.74        9.77     0.66   0.846
  90                        60.00       0.00       1.15       0.01      55.64       0.00      55.64        0.64     0.04   0.927
  91                        60.00       0.00       0.96      10.05      45.18       0.00      45.18        9.85     0.68   0.753
  92                        60.00       0.00       1.06       4.67      50.78       0.00      50.78        6.35     0.43   0.846
  93                        60.00       0.00       0.87      14.90      41.27       0.00      41.27       21.12     1.44   0.688
  94                        60.00       0.00       0.78      19.44      37.68       0.00      37.68        2.64     0.18   0.628
  95                        60.00       0.00       1.15       0.07      55.28       0.00      55.28        1.21     0.08   0.921
  96                        60.00       0.00       0.93      11.62      44.59       0.00      44.59        5.45     0.37   0.743
  97                        60.00       0.00       1.13       1.27      53.95       0.00      53.95        5.36     0.36   0.899
  98                        60.00       0.00       0.93      11.33      44.91       0.00      44.91        5.54     0.37   0.748
  99                        60.00       0.00       0.46      35.90      22.40       0.00      22.40        8.31     0.56   0.373
  100                       60.00       0.00       0.51      33.20      24.92       0.00      24.92        6.39     0.43   0.415
  101                       60.00       0.00       0.53      32.55      25.34       0.00      25.34       12.42     0.84   0.422
  102                       60.00       0.00       0.86      15.26      41.09       0.00      41.09       10.02     0.68   0.685
  103                       60.00       0.00       0.29      45.04      14.11       0.00      14.11        5.13     0.34   0.235
  104                       60.00       0.00       0.19      49.88       9.51       0.00       9.51        9.22     0.61   0.159
  105                       60.00       0.00       0.95      10.65      45.53       0.00      45.53        5.95     0.40   0.759
  106                       60.00       0.00       0.51      33.27      24.81       0.00      24.81        6.05     0.41   0.414
  
  
  ******************
  Node Depth Summary
  ******************
  
  ---------------------------------------------------------------------------------
                                 Average  Maximum  Maximum  Time of Max    Reported
                                   Depth    Depth      HGL   Occurrence   Max Depth
  Node                 Type       Meters   Meters   Meters  days hr:min      Meters
  ---------------------------------------------------------------------------------
  jd1                  JUNCTION     0.16     0.22   273.22     0  08:00        0.22
  jd2                  JUNCTION     1.43     3.00   270.00     0  05:27        3.00
  jd3                  JUNCTION     2.68     3.00   266.00     0  03:37        3.00
  jd4                  JUNCTION     2.49     3.00   270.00     0  04:19        3.00
  jd5                  JUNCTION     0.11     0.15   274.15     0  08:00        0.15
  jd6                  JUNCTION     0.14     0.19   275.19     0  08:00        0.19
  jd7                  JUNCTION     0.41     0.53   264.63     0  08:00        0.53
  jd8                  JUNCTION     2.59     3.00   267.00     0  03:43        3.00
  jd9                  JUNCTION     2.53     3.00   268.00     0  03:55        3.00
  jd10                 JUNCTION     2.69     3.00   273.00     0  03:32        3.00
  jd11                 JUNCTION     0.12     0.17   282.17     0  08:00        0.17
  jd12                 JUNCTION     2.71     3.00   272.00     0  03:27        3.00
  jd13                 JUNCTION     0.15     0.22   289.22     0  08:00        0.22
  jd14                 JUNCTION     1.09     3.00   283.00     0  05:52        3.00
  jd15                 JUNCTION     0.38     0.57   278.57     0  08:00        0.57
  jd16                 JUNCTION     0.41     0.60   274.60     0  08:00        0.60
  jd17                 JUNCTION     2.62     3.00   278.80     0  03:50        3.00
  jd18                 JUNCTION     1.38     3.00   282.00     0  05:40        3.00
  jd19                 JUNCTION     2.34     3.00   270.00     0  04:19        3.00
  jd20                 JUNCTION     0.25     0.34   273.34     0  08:00        0.34
  jd21                 JUNCTION     2.67     3.00   273.00     0  03:36        3.00
  jd22                 JUNCTION     2.44     3.00   275.00     0  05:06        3.00
  jd23                 JUNCTION     0.34     0.56   278.56     0  08:00        0.56
  jd24                 JUNCTION     0.18     0.25   285.25     0  08:00        0.25
  jd25                 JUNCTION     0.32     0.47   279.47     0  08:00        0.47
  jd26                 JUNCTION     1.37     3.00   288.00     0  05:37        3.00
  jd27                 JUNCTION     0.29     0.42   291.42     0  08:00        0.42
  jd28                 JUNCTION     2.73     3.00   290.00     0  03:19        3.00
  jd29                 JUNCTION     0.13     0.17   299.17     0  08:00        0.17
  jd30                 JUNCTION     0.17     0.24   290.24     0  08:00        0.24
  jd31                 JUNCTION     1.16     3.00   275.00     0  03:50        1.62
  jd32                 JUNCTION     2.72     3.00   275.00     0  03:24        3.00
  jd33                 JUNCTION     0.25     0.36   289.36     0  08:00        0.36
  jd34                 JUNCTION     0.31     0.48   294.48     0  08:00        0.48
  jd35                 JUNCTION     2.77     3.00   292.00     0  03:01        3.00
  jd36                 JUNCTION     1.65     3.00   302.00     0  05:18        3.00
  jd37                 JUNCTION     1.59     3.00   306.00     0  05:19        3.00
  jd38                 JUNCTION     0.56     0.86   297.86     0  08:00        0.86
  jd39                 JUNCTION     2.69     3.00   297.00     0  03:37        3.00
  jd40                 JUNCTION     2.26     3.00   302.00     0  05:07        3.00
  jd41                 JUNCTION     2.62     3.00   296.00     0  04:00        3.00
  jd42                 JUNCTION     0.26     0.37   305.37     0  08:00        0.37
  jd43                 JUNCTION     2.25     3.00   300.00     0  05:09        3.00
  jd44                 JUNCTION     2.19     3.00   286.00     0  05:10        3.00
  jd45                 JUNCTION     2.71     3.00   282.00     0  03:31        3.00
  jd46                 JUNCTION     0.38     0.56   275.56     0  08:00        0.56
  jd47                 JUNCTION     0.20     0.28   315.28     0  08:00        0.28
  jd48                 JUNCTION     0.14     0.20   325.20     0  08:00        0.20
  jd49                 JUNCTION     0.34     0.50   289.50     0  08:00        0.50
  jd50                 JUNCTION     2.74     3.00   278.00     0  03:16        3.00
  jd51                 JUNCTION     2.59     3.00   313.00     0  04:04        3.00
  jd52                 JUNCTION     1.17     3.00   326.00     0  05:28        2.02
  jd53                 JUNCTION     1.64     3.00   325.00     0  05:23        3.00
  jd54                 JUNCTION     0.37     0.52   326.52     0  08:00        0.52
  jd55                 JUNCTION     2.12     3.00   325.00     0  05:28        3.00
  jd56                 JUNCTION     0.25     0.37   327.37     0  08:00        0.37
  jd59                 JUNCTION     2.57     3.00   320.80     0  04:09        3.00
  jd60                 JUNCTION     2.71     3.00   319.00     0  03:26        3.00
  jd61                 JUNCTION     0.19     0.26   329.26     0  08:00        0.26
  jd62                 JUNCTION     0.08     0.11   335.11     0  08:00        0.11
  jd63                 JUNCTION     0.09     0.12   324.12     0  08:00        0.12
  jd64                 JUNCTION     2.42     3.00   321.00     0  04:09        2.88
  jd65                 JUNCTION     2.59     3.00   307.00     0  03:57        3.00
  jd66                 JUNCTION     2.69     3.00   304.00     0  03:33        3.00
  jd69                 JUNCTION     0.31     0.43   333.43     0  08:00        0.43
  jd79                 JUNCTION     2.72     3.00   274.00     0  03:23        3.00
  jd80                 JUNCTION     2.64     3.00   279.00     0  03:41        3.00
  jd81                 JUNCTION     0.19     0.27   288.27     0  08:00        0.27
  jd83                 JUNCTION     2.76     3.00   323.00     0  03:09        3.00
  jd84                 JUNCTION     0.54     3.00   326.00     0  07:06        1.84
  jd85                 JUNCTION     2.69     3.00   324.00     0  03:31        3.00
  jd87                 JUNCTION     2.70     3.00   322.00     0  03:29        3.00
  jd89                 JUNCTION     0.21     0.29   324.29     0  08:00        0.29
  jd90                 JUNCTION     0.18     0.25   328.25     0  08:00        0.25
  jd92                 JUNCTION     0.18     0.26   326.26     0  08:00        0.26
  jd93                 JUNCTION     1.61     3.00   327.00     0  05:22        3.00
  jd94                 JUNCTION     0.81     2.23   328.43     0  05:43        1.80
  jd95                 JUNCTION     0.83     2.02   329.02     0  05:57        1.91
  jd96                 JUNCTION     2.72     3.00   308.00     0  03:25        3.00
  jd97                 JUNCTION     0.84     2.06   329.26     0  05:57        1.97
  jd98                 JUNCTION     0.25     0.36   329.36     0  08:00        0.36
  jd99                 JUNCTION     2.68     3.00   327.00     0  03:34        3.00
  jd101                JUNCTION     0.14     0.20   321.20     0  08:00        0.20
  jd102                JUNCTION     0.32     0.47   324.47     0  08:00        0.47
  jd103                JUNCTION     0.15     0.20   318.20     0  08:00        0.20
  jd106                JUNCTION     2.63     3.00   287.00     0  03:50        3.00
  jd107                JUNCTION     0.27     0.38   332.38     0  08:00        0.38
  jd108                JUNCTION     1.23     1.46   327.46     0  08:00        1.46
  jd109                JUNCTION     0.22     0.31   343.31     0  08:00        0.31
  jd110                JUNCTION     2.70     3.00   327.00     0  03:31        3.00
  jd111                JUNCTION     0.09     0.13   344.13     0  08:00        0.13
  jd112                JUNCTION     0.12     0.17   334.17     0  08:00        0.17
  jd113                JUNCTION     0.13     0.18   348.18     0  08:00        0.18
  jd114                JUNCTION     2.71     3.00   317.00     0  03:30        3.00
  jd117                JUNCTION     1.60     3.00   319.00     0  03:37        2.52
  jd118                JUNCTION     0.12     0.17   330.17     0  08:00        0.17
  jd120                JUNCTION     0.21     0.31   327.31     0  08:00        0.31
  jd121                JUNCTION     0.21     0.30   320.30     0  08:00        0.30
  jd122                JUNCTION     2.68     3.00   276.00     0  03:36        3.00
  jd123                JUNCTION     2.67     3.00   276.20     0  03:38        3.00
  jd124                JUNCTION     2.84     3.00   271.00     0  02:08        3.00
  jd125                JUNCTION     2.41     3.00   278.00     0  04:16        3.00
  jd126                JUNCTION     2.77     3.00   275.00     0  02:57        3.00
  jd135                JUNCTION     0.18     0.25   289.25     0  08:00        0.25
  jd136                JUNCTION     0.35     0.50   341.50     0  08:00        0.50
  psk1                 OUTFALL      0.12     0.17   279.17     0  08:00        0.17
  psk2                 OUTFALL      0.17     0.24   270.24     0  08:00        0.24
  psk3                 OUTFALL      0.41     0.60   271.60     0  08:00        0.60
  psk4                 OUTFALL      0.00     0.00   280.00     0  00:00        0.00
  psk5                 OUTFALL      0.16     0.22   263.22     0  08:00        0.22
  psk6                 OUTFALL      0.11     0.15   259.15     0  08:00        0.15
  psk7                 OUTFALL      0.41     0.53   262.53     0  08:00        0.53
  psk8                 OUTFALL      0.00     0.00   317.00     0  00:00        0.00
  
  
  *******************
  Node Inflow Summary
  *******************
  
  -------------------------------------------------------------------------------------------------
                                  Maximum  Maximum                  Lateral       Total        Flow
                                  Lateral    Total  Time of Max      Inflow      Inflow     Balance
                                   Inflow   Inflow   Occurrence      Volume      Volume       Error
  Node                 Type           CMS      CMS  days hr:min    10^6 ltr    10^6 ltr     Percent
  -------------------------------------------------------------------------------------------------
  jd1                  JUNCTION     0.651    1.003     0  08:00        9.58        15.1       0.535
  jd2                  JUNCTION     1.013    1.365     0  08:00        14.6        19.9       0.758
  jd3                  JUNCTION     1.214    2.932     0  08:00        17.6        47.9       0.844
  jd4                  JUNCTION     1.462    1.628     0  08:00        21.1        23.6       1.203
  jd5                  JUNCTION     0.426    0.709     0  08:00        6.25        10.6       0.266
  jd6                  JUNCTION     0.492    0.492     0  08:00        7.19        7.19       0.341
  jd7                  JUNCTION     0.248    2.285     0  08:00        3.68        40.7       0.439
  jd8                  JUNCTION     0.345    1.291     0  08:00        5.09        25.9       0.948
  jd9                  JUNCTION     0.265    1.332     0  08:00        3.92        26.2       0.845
  jd10                 JUNCTION     0.706    0.894     0  08:00        10.4        13.1       0.779
  jd11                 JUNCTION     1.042    1.042     0  08:00        15.3        15.3       0.425
  jd12                 JUNCTION     0.786    1.722     0  08:00        11.5          25       0.557
  jd13                 JUNCTION     1.423    1.423     0  08:00        20.8        20.8       0.325
  jd14                 JUNCTION     1.671    1.887     0  08:00        24.2        27.3       0.539
  jd15                 JUNCTION     0.687    1.673     0  08:00        10.1        23.2       1.316
  jd16                 JUNCTION     0.738    3.081     0  08:00        10.8        43.1       0.578
  jd17                 JUNCTION     1.545    3.357     0  08:00        22.5        52.2       1.547
  jd18                 JUNCTION     1.224    1.786     0  08:00        17.9        26.1       1.001
  jd19                 JUNCTION     1.136    2.043     0  08:00        16.7        30.8       0.657
  jd20                 JUNCTION     0.945    1.189     0  08:00        13.8        19.2       0.663
  jd21                 JUNCTION     0.438    2.738     0  08:00        6.38        45.4       0.751
  jd22                 JUNCTION     0.772    1.603     0  08:00        11.2        24.2       0.347
  jd23                 JUNCTION     0.763    2.255     0  08:00        11.1        31.9       0.446
  jd24                 JUNCTION     1.253    1.253     0  08:00        18.3        18.3       0.415
  jd25                 JUNCTION     0.986    1.433     0  08:00        14.4        20.9       0.620
  jd26                 JUNCTION     1.435    2.282     0  08:00        20.9        34.1       0.589
  jd27                 JUNCTION     1.479    2.161     0  08:00        21.5        33.7       0.549
  jd28                 JUNCTION     2.020    2.633     0  08:00        29.2        39.5       0.349
  jd29                 JUNCTION     0.807    0.807     0  08:00        11.8        11.8       0.284
  jd30                 JUNCTION     0.842    2.601     0  08:00        12.2          37       0.302
  jd31                 JUNCTION     0.562    1.193     0  08:00        8.16        17.4       2.634
  jd32                 JUNCTION     1.139    3.877     0  08:00        16.6          63       0.404
  jd33                 JUNCTION     1.122    1.952     0  08:00        16.4          28       0.340
  jd34                 JUNCTION     1.387    1.387     0  08:00        20.4        20.4       0.285
  jd35                 JUNCTION     1.266    3.256     0  08:00        18.6        54.8       0.251
  jd36                 JUNCTION     2.157    3.125     0  08:00        31.1        47.9       0.702
  jd37                 JUNCTION     2.266    2.266     0  08:00        32.9        32.9       0.427
  jd38                 JUNCTION     2.079    3.019     0  08:00        30.3        47.2       0.938
  jd39                 JUNCTION     1.439    4.058     0  08:00          21        71.1       0.733
  jd40                 JUNCTION     2.456    4.646     0  08:00        35.7        76.6       1.150
  jd41                 JUNCTION     1.724    5.727     0  08:00        25.1        90.3       2.412
  jd42                 JUNCTION     2.270    2.487     0  08:00        32.6        35.9       0.606
  jd43                 JUNCTION     2.534    4.435     0  08:00        37.3        66.2       1.164
  jd44                 JUNCTION     3.397    5.972     0  08:00        49.4        99.8       1.423
  jd45                 JUNCTION     1.387    3.612     0  08:00        19.9        64.6       0.513
  jd46                 JUNCTION     0.632    0.632     0  08:00        9.07        9.07       1.812
  jd47                 JUNCTION     2.026    2.026     0  08:00        29.6        29.6       0.470
  jd48                 JUNCTION     0.560    0.560     0  08:00        8.33        8.33       0.487
  jd49                 JUNCTION     2.761    2.761     0  08:00        39.9        39.9       0.508
  jd50                 JUNCTION     2.859    5.970     0  08:00        41.6        95.9       0.460
  jd51                 JUNCTION     0.596    2.747     0  08:00        8.78        40.2       3.540
  jd52                 JUNCTION     1.219    3.777     0  05:27        17.7        50.1       1.036
  jd53                 JUNCTION     0.679    2.523     0  08:00        9.81        43.8       0.604
  jd54                 JUNCTION     0.364    1.809     0  08:00        5.33        26.5       0.645
  jd55                 JUNCTION     0.663    2.512     0  08:00        9.73        34.1       2.990
  jd56                 JUNCTION     0.403    1.178     0  08:00        5.93        17.3       0.533
  jd59                 JUNCTION     0.400    1.984     0  08:00        5.86        28.6       2.775
  jd60                 JUNCTION     0.716    1.518     0  08:00        10.5        22.3       0.581
  jd61                 JUNCTION     0.804    0.903     0  08:00        11.8        13.3       0.375
  jd62                 JUNCTION     0.323    0.323     0  08:00        4.81        4.81       0.203
  jd63                 JUNCTION     0.444    0.444     0  08:00        6.52        6.52       0.271
  jd64                 JUNCTION     0.374    0.923     0  08:00        5.47        13.5       2.853
  jd65                 JUNCTION     6.434    6.434     0  08:00        92.4        92.4       0.236
  jd66                 JUNCTION     0.839    2.432     0  08:00        12.4        35.8       0.891
  jd69                 JUNCTION     1.550    1.593     0  08:00          23        23.6       0.531
  jd79                 JUNCTION     1.510    2.426     0  08:00          22        38.1       0.467
  jd80                 JUNCTION     1.678    2.286     0  08:00        24.5          33       0.470
  jd81                 JUNCTION     1.275    1.275     0  08:00        18.6        18.6       0.146
  jd83                 JUNCTION     1.327    1.780     0  08:00        19.6          25       0.348
  jd84                 JUNCTION     1.686    1.686     0  08:00          25          25       0.434
  jd85                 JUNCTION     0.383    0.627     0  08:00        5.66        9.28       0.920
  jd87                 JUNCTION     0.314    0.757     0  08:00        4.62        11.1       0.672
  jd89                 JUNCTION     0.366    0.366     0  08:00        5.35        5.35       0.549
  jd90                 JUNCTION     0.373    0.373     0  08:00        5.48        5.48       0.405
  jd92                 JUNCTION     0.314    0.314     0  08:00        4.61        4.61       0.305
  jd93                 JUNCTION     0.678    1.463     0  08:00        9.83        21.2       0.718
  jd94                 JUNCTION     0.043    0.785     0  08:00       0.635        11.4       0.739
  jd95                 JUNCTION     0.082    0.742     0  08:00         1.2        10.9       0.754
  jd96                 JUNCTION     0.611    0.816     0  08:00        9.17        12.2       0.794
  jd97                 JUNCTION     0.661    0.661     0  08:00        9.71        9.71       0.220
  jd98                 JUNCTION     0.369    0.369     0  08:00        5.42        5.42       0.354
  jd99                 JUNCTION     0.177    0.437     0  08:00        2.63        7.32       0.780
  jd101                JUNCTION     0.483    0.964     0  08:00        7.12        14.1       0.370
  jd102                JUNCTION     0.482    0.482     0  08:00        7.02        7.02       0.486
  jd103                JUNCTION     0.331    0.331     0  08:00        4.87        4.87       0.166
  jd106                JUNCTION     0.259    1.552     0  08:00        3.83        22.5       1.750
  jd107                JUNCTION     0.374    1.230     0  08:00        5.51        18.1       0.614
  jd108                JUNCTION     0.407    0.407     0  08:00        6.03        6.05       1.089
  jd109                JUNCTION     0.680    0.680     0  08:00        9.97        9.97       0.159
  jd110                JUNCTION     0.517    0.769     0  08:00        7.78        11.5       1.331
  jd111                JUNCTION     0.429    0.429     0  08:00        6.36        6.36       0.337
  jd112                JUNCTION     0.505    1.402     0  08:00        7.39        20.7       0.262
  jd113                JUNCTION     0.339    0.339     0  08:00        5.11        5.11       0.116
  jd114                JUNCTION     0.409    3.946     0  08:00        6.01        66.8       0.481
  jd117                JUNCTION     0.377    1.234     0  08:00        5.52        18.3       0.860
  jd118                JUNCTION     0.345    0.345     0  08:00        5.08        5.08       0.083
  jd120                JUNCTION     0.431    0.431     0  08:00        6.32        6.32       0.272
  jd121                JUNCTION     0.533    0.533     0  08:00        7.81        7.81       0.328
  jd122                JUNCTION     1.266    4.636     0  08:00        18.5        70.7       0.797
  jd123                JUNCTION     1.301    3.608     0  08:00        19.1        62.2       1.140
  jd124                JUNCTION     1.880    2.953     0  08:00        27.3          51       0.127
  jd125                JUNCTION     1.831    3.506     0  08:00        26.4        62.5       0.667
  jd126                JUNCTION     2.662    3.524     0  08:00        38.4        52.3       0.205
  jd135                JUNCTION     0.673    0.673     0  08:00        9.88        9.88       0.249
  jd136                JUNCTION     0.558    0.897     0  08:00        8.28        13.4       0.655
  psk1                 OUTFALL      0.000    0.676     0  08:00           0        9.88       0.000
  psk2                 OUTFALL      0.000    1.969     0  08:00           0        27.6       0.000
  psk3                 OUTFALL      0.000    3.081     0  08:00           0        42.8       0.000
  psk4                 OUTFALL      0.000    0.000     0  00:00           0           0       0.000 ltr
  psk5                 OUTFALL      0.000    0.652     0  08:00           0        9.77       0.000
  psk6                 OUTFALL      0.000    0.544     0  08:00           0         8.1       0.000
  psk7                 OUTFALL      0.000    2.285     0  08:00           0        40.5       0.000
  psk8                 OUTFALL      0.000    0.000     0  00:00           0           0       0.000 ltr
  
  
  **********************
  Node Surcharge Summary
  **********************
  
  Surcharging occurs when water rises above the top of the highest conduit.
  ---------------------------------------------------------------------
                                               Max. Height   Min. Depth
                                   Hours       Above Crown    Below Rim
  Node                 Type      Surcharged         Meters       Meters
  ---------------------------------------------------------------------
  jd2                  JUNCTION        2.91          2.200        0.000
  jd3                  JUNCTION        6.37          2.200        0.000
  jd4                  JUNCTION        5.68          2.200        0.000
  jd8                  JUNCTION        6.28          2.200        0.000
  jd9                  JUNCTION        6.08          2.200        0.000
  jd10                 JUNCTION        6.47          2.400        0.000
  jd12                 JUNCTION        6.55          2.400        0.000
  jd14                 JUNCTION        2.28          2.400        0.000
  jd17                 JUNCTION        6.17          2.200        0.000
  jd18                 JUNCTION        2.54          2.000        0.000
  jd19                 JUNCTION        5.68          2.200        0.000
  jd21                 JUNCTION        6.40          2.200        0.000
  jd22                 JUNCTION        6.25          2.400        0.000
  jd26                 JUNCTION        2.56          2.400        0.000
  jd28                 JUNCTION        6.68          2.400        0.000
  jd31                 JUNCTION        6.15          2.200        0.000
  jd32                 JUNCTION        6.60          2.200        0.000
  jd35                 JUNCTION        7.02          2.400        0.000
  jd36                 JUNCTION        3.41          2.400        0.000
  jd37                 JUNCTION        3.10          2.400        0.000
  jd39                 JUNCTION        6.38          2.000        0.000
  jd40                 JUNCTION        4.87          2.200        0.000
  jd41                 JUNCTION        5.99          1.000        0.000
  jd43                 JUNCTION        4.84          2.200        0.000
  jd44                 JUNCTION        4.82          2.000        0.000
  jd45                 JUNCTION        6.48          2.000        0.000
  jd50                 JUNCTION        6.73          2.200        0.000
  jd51                 JUNCTION        5.93          1.350        0.000
  jd52                 JUNCTION        2.94          1.500        0.000
  jd53                 JUNCTION        3.21          1.800        0.000
  jd55                 JUNCTION        5.55          1.500        0.000
  jd59                 JUNCTION        5.85          1.500        0.000
  jd60                 JUNCTION        6.56          2.400        0.000
  jd64                 JUNCTION        5.87          1.800        0.000
  jd65                 JUNCTION        6.04          2.400        0.000
  jd66                 JUNCTION        6.44          2.200        0.000
  jd79                 JUNCTION        6.62          2.400        0.000
  jd80                 JUNCTION        6.31          2.400        0.000
  jd83                 JUNCTION        6.86          2.400        0.000
  jd84                 JUNCTION        0.94          2.400        0.000
  jd85                 JUNCTION        6.48          2.400        0.000
  jd87                 JUNCTION        6.51          2.400        0.000
  jd93                 JUNCTION        3.28          2.200        0.000
  jd94                 JUNCTION        2.53          1.429        0.771
  jd95                 JUNCTION        2.18          1.220        0.980
  jd96                 JUNCTION        6.58          2.200        0.000
  jd97                 JUNCTION        2.13          1.264        0.936
  jd99                 JUNCTION        6.43          2.400        0.000
  jd106                JUNCTION        6.16          2.000        0.000
  jd108                JUNCTION        6.54          0.458        1.542
  jd110                JUNCTION        6.48          2.000        0.000
  jd114                JUNCTION        6.50          2.000        0.000
  jd117                JUNCTION        6.38          2.200        0.000
  jd122                JUNCTION        6.40          2.200        0.000
  jd123                JUNCTION        6.36          2.200        0.000
  jd124                JUNCTION        7.87          2.400        0.000
  jd125                JUNCTION        5.73          2.200        0.000
  jd126                JUNCTION        7.06          2.400        0.000
  
  
  *********************
  Node Flooding Summary
  *********************
  
  Flooding refers to all water that overflows a node, whether it ponds or not.
  --------------------------------------------------------------------------
                                                             Total   Maximum
                                 Maximum   Time of Max       Flood    Ponded
                        Hours       Rate    Occurrence      Volume     Depth
  Node                 Flooded       CMS   days hr:min    10^6 ltr    Meters
  --------------------------------------------------------------------------
  jd2                     1.87     0.160      0  05:27       0.658     0.000
  jd3                     6.37     2.932      0  08:00      47.545     0.000
  jd4                     5.59     1.118      0  08:00      12.089     0.000
  jd8                     5.01     0.208      0  07:50       2.491     0.000
  jd9                     4.99     0.387      0  08:00       5.220     0.000
  jd10                    6.47     0.894      0  08:00      13.024     0.000
  jd12                    6.54     1.722      0  08:00      24.828     0.000
  jd14                    0.83     0.069      0  05:52       0.086     0.000
  jd17                    6.17     2.528      0  08:00      32.620     0.000
  jd18                    1.99     0.262      0  08:00       1.254     0.000
  jd19                    3.48     0.975      0  08:00       8.332     0.000
  jd21                    6.16     2.738      0  08:00      44.740     0.000
  jd22                    3.80     0.779      0  08:00       6.957     0.000
  jd26                    2.07     0.386      0  08:00       2.039     0.000
  jd28                    6.67     2.633      0  08:00      39.337     0.000
  jd31                    0.01     0.699      0  03:50       0.008     0.000
  jd32                    6.59     3.877      0  08:00      62.756     0.000
  jd35                    6.99     3.256      0  08:00      54.670     0.000
  jd36                    3.00     1.009      0  08:00       7.815     0.000
  jd37                    2.90     0.786      0  08:00       5.599     0.000
  jd39                    6.38     4.058      0  08:00      70.559     0.000
  jd40                    4.87     2.084      0  08:00      22.537     0.000
  jd41                    5.99     5.727      0  08:00      88.230     0.000
  jd43                    4.84     2.603      0  08:00      25.780     0.000
  jd44                    3.47     2.072      0  08:00      17.640     0.000
  jd45                    6.48     3.612      0  08:00      64.234     0.000
  jd50                    6.72     5.970      0  08:00      95.480     0.000
  jd51                    5.92     2.747      0  08:00      38.785     0.000
  jd52                    0.01     1.196      0  05:28       0.017     0.000
  jd53                    1.92     0.381      0  05:23       0.781     0.000
  jd55                    2.86     2.512      0  08:00      20.321     0.000
  jd59                    5.84     1.984      0  08:00      27.832     0.000
  jd60                    6.56     1.518      0  08:00      22.161     0.000
  jd64                    0.01     0.298      0  04:09       0.007     0.000
  jd65                    6.04     5.341      0  08:00      66.817     0.000
  jd66                    6.44     2.432      0  08:00      35.529     0.000
  jd79                    6.49     2.182      0  08:00      32.502     0.000
  jd80                    6.17     2.128      0  08:00      28.851     0.000
  jd83                    6.85     1.780      0  08:00      24.929     0.000
  jd84                    0.01     0.135      0  07:06       0.001     0.000
  jd85                    6.48     0.627      0  08:00       9.201     0.000
  jd87                    6.51     0.757      0  08:00      11.041     0.000
  jd93                    2.08     0.271      0  08:00       1.429     0.000
  jd96                    6.58     0.816      0  08:00      12.068     0.000
  jd99                    6.43     0.437      0  08:00       7.268     0.000
  jd106                   6.16     1.552      0  08:00      22.068     0.000
  jd110                   6.47     0.769      0  08:00      11.369     0.000
  jd114                   6.39     3.946      0  08:00      66.429     0.000
  jd117                   0.01     0.329      0  03:37       0.003     0.000
  jd122                   6.36     4.636      0  08:00      69.992     0.000
  jd123                   6.36     3.293      0  08:00      54.266     0.000
  jd124                   7.86     2.953      0  08:00      50.983     0.000
  jd125                   4.91     1.120      0  08:00      10.752     0.000
  jd126                   7.04     3.524      0  08:00      52.226     0.000
  
  
  ***********************
  Outfall Loading Summary
  ***********************
  
  -----------------------------------------------------------
                         Flow       Avg       Max       Total
                         Freq      Flow      Flow      Volume
  Outfall Node           Pcnt       CMS       CMS    10^6 ltr
  -----------------------------------------------------------
  psk1                  97.60     0.413     0.676       9.877
  psk2                  97.45     1.171     1.969      27.562
  psk3                  97.54     1.812     3.081      42.837
  psk4                   0.00     0.000     0.000       0.000
  psk5                  97.51     0.410     0.652       9.770
  psk6                  97.58     0.339     0.544       8.096
  psk7                  97.56     1.661     2.285      40.508
  psk8                   0.00     0.000     0.000       0.000
  -----------------------------------------------------------
  System                73.16     5.806     0.000     138.650
  
  
  ********************
  Link Flow Summary
  ********************
  
  -----------------------------------------------------------------------------
                                 Maximum  Time of Max   Maximum    Max/    Max/
                                  |Flow|   Occurrence   |Veloc|    Full    Full
  Link                 Type          CMS  days hr:min     m/sec    Flow   Depth
  -----------------------------------------------------------------------------
  GQ1                  CONDUIT     0.355     0  07:16      1.95    0.93    0.66
  GQ2                  CONDUIT     1.321     0  08:00      2.77    0.63    0.59
  GQ3                  CONDUIT     0.676     0  08:00      6.35    0.03    0.11
  GQ4                  CONDUIT     0.510     0  05:39      1.80    1.00    1.00
  GQ5                  CONDUIT     1.208     0  06:25      2.40    1.00    1.00
  GQ6                  CONDUIT     0.352     0  08:00      1.13    0.16    0.63
  GQ7                  CONDUIT     1.675     0  06:12      3.57    1.00    1.00
  GQ8                  CONDUIT     0.743     0  08:00      1.70    0.71    0.81
  GQ9                  CONDUIT     2.018     0  08:00      4.62    0.71    0.81
  GQ10                 CONDUIT     1.136     0  03:56      4.07    1.04    1.00
  GQ11                 CONDUIT     0.217     0  08:00      1.66    0.23    0.47
  GQ12                 CONDUIT     0.260     0  08:00      1.26    0.28    0.68
  GQ13                 CONDUIT     0.165     0  08:00      0.53    0.08    0.59
  GQ14                 CONDUIT     0.085     0  08:00      1.07    0.12    0.22
  GQ15                 CONDUIT     0.199     0  08:00      4.35    0.80    0.62
  GQ16                 CONDUIT     1.760     0  08:00      4.05    0.85    0.55
  GQ17                 CONDUIT     0.407     0  08:00      1.85    0.13    0.45
  GQ18                 CONDUIT     1.082     0  08:00      2.50    4.88    0.83
  GQ19                 CONDUIT     0.547     0  08:00      2.24    0.06    0.35
  GQ20                 CONDUIT     0.120     0  08:00      0.44    0.06    0.59
  GQ21                 CONDUIT     0.442     0  08:00      1.36    0.14    0.63
  GQ22                 CONDUIT     0.448     0  08:00      1.76    0.14    0.36
  GQ23                 CONDUIT     0.917     0  08:00      2.28    0.45    0.51
  GQ24                 CONDUIT     1.425     0  08:00      3.14    0.71    0.85
  GQ25                 CONDUIT     0.830     0  08:00      3.92    0.93    0.70
  GQ26                 CONDUIT     0.576     0  08:00      2.58    0.67    0.76
  GQ27                 CONDUIT     0.832     0  07:31      3.00    0.83    0.96
  GQ28                 CONDUIT     0.283     0  08:00      0.74    0.30    0.71
  GQ29                 CONDUIT     1.193     0  08:00      2.37    0.56    1.00
  GQ30                 CONDUIT     0.824     0  06:09      2.91    1.00    1.00
  GQ31                 CONDUIT     0.557     0  08:00      2.07    0.74    0.90
  GQ32                 CONDUIT     0.683     0  08:00      2.90    1.10    0.85
  GQ33                 CONDUIT     1.434     0  05:31      5.07    1.00    1.00
  GQ34                 CONDUIT     0.429     0  08:00      1.75    0.67    0.81
  GQ35                 CONDUIT     0.579     0  05:18      2.14    1.07    1.00
  GQ36                 CONDUIT     0.953     0  05:20      3.37    1.18    1.00
  GQ37                 CONDUIT     0.423     0  08:00      1.65    0.60    0.85
  GQ38                 CONDUIT     0.190     0  08:00      0.89    0.27    0.70
  GQ39                 CONDUIT     0.782     0  07:19      2.76    1.00    1.00
  GQ40                 CONDUIT     0.576     0  08:00      2.47    0.72    0.85
  GQ41                 CONDUIT     1.259     0  08:00      1.66    0.58    0.93
  GQ42                 CONDUIT     1.359     0  07:23      2.70    1.00    1.00
  GQ43                 CONDUIT     2.311     0  05:21      4.69    1.03    1.00
  GQ44                 CONDUIT     0.946     0  05:32      1.88    1.00    1.00
  GQ45                 CONDUIT     0.907     0  08:00      2.38    0.37    0.71
  GQ46                 CONDUIT     1.068     0  07:07      2.12    1.00    1.00
  GQ47                 CONDUIT     0.188     0  08:00      0.98    0.18    0.64
  GQ48                 CONDUIT     0.187     0  08:00      0.97    0.18    0.64
  GQ49                 CONDUIT     0.749     0  08:00      3.65    0.28    0.68
  GQ50                 CONDUIT     0.216     0  08:00      1.05    0.28    0.68
  GQ51                 CONDUIT     0.987     0  08:00      3.51    1.50    0.98
  GQ52                 CONDUIT     0.631     0  08:00      1.38    0.84    0.85
  GQ53                 CONDUIT     2.225     0  07:11      2.83    1.00    1.00
  GQ54                 CONDUIT     0.460     0  08:00      2.12    0.39    0.72
  GQ55                 CONDUIT     0.343     0  08:00      1.72    0.23    0.66
  GQ56                 CONDUIT     1.970     0  05:08      3.96    1.08    1.00
  GQ57                 CONDUIT     0.667     0  08:00      1.70    0.44    0.73
  GQ58                 CONDUIT     1.390     0  08:00      3.53    0.44    0.73
  GQ59                 CONDUIT     1.203     0  07:16      2.39    1.00    1.00
  GQ60                 CONDUIT     1.788     0  05:28      1.21    0.43    1.00
  GQ61                 CONDUIT     0.295     0  08:00      0.29    0.04    0.57
  GQ62                 CONDUIT     0.617     0  08:00      0.48    0.06    0.58
  GQ63                 CONDUIT     1.410     0  08:00      0.76    0.04    0.57
  GQ64                 CONDUIT     0.100     0  08:00      1.33    0.08    0.31
  GQ65                 CONDUIT     0.043     0  08:00      0.35    0.08    0.45
  GQ66                 CONDUIT     0.176     0  08:00      0.58    0.05    0.58
  GQ67                 CONDUIT     0.923     0  08:00      0.82    0.64    1.00
  GQ68                 CONDUIT     0.918     0  08:00      1.60    0.29    0.68
  GQ69                 CONDUIT     1.593     0  08:00      3.84    0.57    0.77
  GQ70                 CONDUIT     0.544     0  08:00      8.23    0.08    0.19
  GQ71                 CONDUIT     0.652     0  08:00      5.96    0.16    0.27
  GQ72                 CONDUIT     2.285     0  08:00      5.44    0.55    0.53
  GQ73                 CONDUIT     1.969     0  08:00     13.45    0.13    0.24
  GQ74                 CONDUIT     0.360     0  08:00      1.33    0.07    0.38
  GQ75                 CONDUIT     0.443     0  08:00      0.86    0.13    0.62
  GQ76                 CONDUIT     3.081     0  08:00      6.30    0.67    0.60
  GQ77                 CONDUIT     0.000     0  00:00      0.00    0.00    0.29
  GQ78                 CONDUIT     0.916     0  07:00      3.24    1.00    1.00
  GQ79                 CONDUIT     0.244     0  08:00      1.08    0.53    0.78
  GQ80                 CONDUIT     0.608     0  06:18      2.15    1.00    1.00
  GQ81                 CONDUIT     0.488     0  03:50      1.72    3.09    1.00
  GQ82                 CONDUIT     0.614     0  08:00      2.79    0.42    0.73
  GQ83                 CONDUIT     0.662     0  08:00      3.02    0.42    0.72
  GQ84                 CONDUIT     1.305     0  07:04      4.71    1.03    1.00
  GQ85                 CONDUIT     0.453     0  08:00      1.60    0.78    1.00
  GQ86                 CONDUIT     0.180     0  08:00      1.03    0.08    0.59
  GQ87                 CONDUIT     0.064     0  08:00      0.36    0.09    0.60
  GQ88                 CONDUIT     0.444     0  08:00      2.04    0.39    0.72
  GQ89                 CONDUIT     0.366     0  08:00      1.62    0.48    0.74
  GQ90                 CONDUIT     0.373     0  08:00      1.73    0.38    0.71
  GQ91                 CONDUIT     0.314     0  08:00      1.45    0.38    0.71
  GQ92                 CONDUIT     0.742     0  08:00      1.78    1.07    1.00
  GQ93                 CONDUIT     0.785     0  08:00      1.56    0.67    1.00
  GQ94                 CONDUIT     1.199     0  08:04      2.39    1.42    1.00
  GQ95                 CONDUIT     0.204     0  08:00      0.68    0.05    0.58
  GQ96                 CONDUIT     0.661     0  08:00      1.36    1.13    1.00
  GQ97                 CONDUIT     0.369     0  08:00      2.06    0.67    0.61
  GQ98                 CONDUIT     0.260     0  08:00      1.06    0.37    0.81
  GQ99                 CONDUIT     0.669     0  08:00      0.65    0.04    0.57
  GQ100                CONDUIT     0.482     0  08:00      2.99    0.83    0.56
  GQ101                CONDUIT     0.331     0  08:00      1.65    0.25    0.67
  GQ102                CONDUIT     1.377     0  08:00      3.52    0.42    0.73
  GQ103                CONDUIT     0.517     0  08:00      1.94    0.79    0.89
  GQ104                CONDUIT     1.163     0  08:00      4.53    0.84    0.85
  GQ105                CONDUIT     0.491     0  03:38      0.98    1.56    1.00
  GQ106                CONDUIT     0.364     0  08:00      1.70    0.36    0.71
  GQ107                CONDUIT     1.114     0  06:10      3.94    1.00    1.00
  GQ108                CONDUIT     0.829     0  06:27      1.65    1.00    1.00
  GQ109                CONDUIT     0.271     0  08:00      1.32    0.37    0.71
  GQ110                CONDUIT     0.448     0  08:00      0.94    0.07    0.59
  GQ111                CONDUIT     0.402     0  08:00      1.87    0.37    0.71
  GQ112                CONDUIT     1.230     0  08:00      3.15    0.22    0.38
  GQ113                CONDUIT     0.680     0  08:00      4.06    0.52    0.57
  GQ114                CONDUIT     0.407     0  08:00      0.71    0.17    0.68
  GQ115                CONDUIT     0.176     0  08:00      1.00    0.02    0.21
  GQ116                CONDUIT     0.253     0  08:00      0.55    0.04    0.56
  GQ117                CONDUIT     0.897     0  08:00      4.57    0.56    0.41
  GQ118                CONDUIT     0.339     0  08:00      1.75    0.12    0.43
  GQ119                CONDUIT     2.302     0  06:18      4.58    1.00    1.00
  GQ120                CONDUIT     0.000     0  00:00      0.00    0.00    0.50
  GQ121                CONDUIT     1.234     0  08:00      2.46    0.87    1.00
  GQ122                CONDUIT     0.512     0  08:00      1.61    0.09    0.60
  GQ123                CONDUIT     0.345     0  08:00      1.81    0.17    0.64
  GQ124                CONDUIT     0.214     0  08:00      1.04    0.09    0.43
  GQ125                CONDUIT     0.431     0  08:00      1.88    0.49    0.76
  GQ126                CONDUIT     0.533     0  08:00      2.34    0.51    0.75
  GQ127                CONDUIT     0.805     0  05:18      1.71    1.03    1.00
  GQ128                CONDUIT     1.808     0  08:00      2.39    0.39    0.72
  GQ129                CONDUIT     1.313     0  06:17      2.61    1.00    1.00
  GQ130                CONDUIT     1.073     0  06:17      3.79    1.00    1.00
  GQ131                CONDUIT     0.862     0  07:19      3.05    1.00    1.00
  
  
  ***************************
  Flow Classification Summary
  ***************************
  
  -------------------------------------------------------------------------------------
                      Adjusted    ---------- Fraction of Time in Flow Class ---------- 
                       /Actual         Up    Down  Sub   Sup   Up    Down  Norm  Inlet 
  Conduit               Length    Dry  Dry   Dry   Crit  Crit  Crit  Crit  Ltd   Ctrl  
  -------------------------------------------------------------------------------------
  GQ1                     1.00   0.02  0.00  0.00  0.15  0.83  0.00  0.00  0.00  0.00
  GQ2                     1.00   0.02  0.00  0.00  0.05  0.92  0.00  0.00  0.90  0.00
  GQ3                     1.00   0.02  0.00  0.00  0.00  0.98  0.00  0.00  0.15  0.00
  GQ4                     1.00   0.02  0.00  0.00  0.98  0.00  0.00  0.00  0.25  0.00
  GQ5                     1.00   0.02  0.00  0.00  0.98  0.00  0.00  0.00  0.48  0.00
  GQ6                     1.00   0.02  0.00  0.00  0.98  0.00  0.00  0.00  0.90  0.00
  GQ7                     1.00   0.02  0.00  0.00  0.74  0.24  0.00  0.00  0.08  0.00
  GQ8                     1.00   0.02  0.00  0.00  0.98  0.00  0.00  0.00  0.88  0.00
  GQ9                     1.00   0.02  0.00  0.00  0.24  0.74  0.00  0.00  0.90  0.00
  GQ10                    1.00   0.02  0.00  0.00  0.93  0.05  0.00  0.00  0.29  0.00
  GQ11                    1.00   0.02  0.00  0.00  0.02  0.95  0.00  0.00  0.89  0.00
  GQ12                    1.00   0.02  0.00  0.00  0.97  0.01  0.00  0.00  0.90  0.00
  GQ13                    1.00   0.02  0.00  0.00  0.98  0.00  0.00  0.00  0.90  0.00
  GQ14                    1.00   0.02  0.00  0.00  0.98  0.00  0.00  0.00  0.00  0.00
  GQ15                    1.00   0.02  0.00  0.00  0.00  0.98  0.00  0.00  0.02  0.00
  GQ16                    1.00   0.02  0.00  0.00  0.00  0.97  0.00  0.00  0.00  0.00
  GQ17                    1.00   0.02  0.00  0.00  0.45  0.53  0.00  0.00  0.90  0.00
  GQ18                    1.00   0.02  0.00  0.00  0.67  0.31  0.00  0.00  0.10  0.00
  GQ19                    1.00   0.02  0.00  0.00  0.14  0.83  0.00  0.00  0.90  0.00
  GQ20                    1.00   0.02  0.00  0.00  0.98  0.00  0.00  0.00  0.90  0.00
  GQ21                    1.00   0.02  0.00  0.00  0.85  0.12  0.00  0.00  0.90  0.00
  GQ22                    1.00   0.02  0.00  0.00  0.03  0.94  0.00  0.00  0.90  0.00
  GQ23                    1.00   0.02  0.00  0.00  0.01  0.97  0.00  0.00  0.34  0.00
  GQ24                    1.00   0.02  0.00  0.00  0.54  0.43  0.00  0.00  0.61  0.00
  GQ25                    1.00   0.02  0.00  0.00  0.00  0.97  0.00  0.00  0.01  0.00
  GQ26                    1.00   0.02  0.00  0.00  0.00  0.97  0.00  0.00  0.83  0.00
  GQ27                    1.00   0.02  0.00  0.00  0.52  0.46  0.00  0.00  0.50  0.00
  GQ28                    1.00   0.02  0.00  0.00  0.98  0.00  0.00  0.00  0.60  0.00
  GQ29                    1.00   0.02  0.00  0.00  0.98  0.00  0.00  0.00  0.26  0.00
  GQ30                    1.00   0.02  0.00  0.00  0.96  0.02  0.00  0.00  0.23  0.00
  GQ31                    1.00   0.02  0.00  0.00  0.98  0.00  0.00  0.00  0.59  0.00
  GQ32                    1.00   0.02  0.00  0.00  0.01  0.97  0.00  0.00  0.00  0.00
  GQ33                    1.00   0.02  0.00  0.00  0.65  0.33  0.00  0.00  0.41  0.00
  GQ34                    1.00   0.02  0.00  0.00  0.98  0.00  0.00  0.00  0.77  0.00
  GQ35                    1.00   0.02  0.00  0.00  0.59  0.39  0.00  0.00  0.30  0.00
  GQ36                    1.00   0.02  0.00  0.00  0.50  0.47  0.00  0.00  0.53  0.00
  GQ37                    1.00   0.02  0.00  0.00  0.98  0.00  0.00  0.00  0.54  0.00
  GQ38                    1.00   0.02  0.00  0.00  0.98  0.00  0.00  0.00  0.60  0.00
  GQ39                    1.00   0.02  0.00  0.00  0.96  0.02  0.00  0.00  0.56  0.00
  GQ40                    1.00   0.02  0.00  0.00  0.43  0.55  0.00  0.00  0.65  0.00
  GQ41                    1.00   0.02  0.00  0.00  0.98  0.00  0.00  0.00  0.40  0.00
  GQ42                    1.00   0.02  0.00  0.00  0.98  0.00  0.00  0.00  0.31  0.00
  GQ43                    1.00   0.02  0.00  0.00  0.54  0.44  0.00  0.00  0.54  0.00
  GQ44                    1.00   0.02  0.00  0.00  0.98  0.00  0.00  0.00  0.27  0.00
  GQ45                    1.00   0.02  0.00  0.00  0.76  0.22  0.00  0.00  0.90  0.00
  GQ46                    1.00   0.02  0.00  0.00  0.91  0.07  0.00  0.00  0.15  0.00
  GQ47                    1.00   0.02  0.00  0.00  0.98  0.00  0.00  0.00  0.90  0.00
  GQ48                    1.00   0.02  0.00  0.00  0.98  0.00  0.00  0.00  0.90  0.00
  GQ49                    1.00   0.02  0.00  0.00  0.30  0.67  0.00  0.00  0.90  0.00
  GQ50                    1.00   0.02  0.00  0.00  0.98  0.00  0.00  0.00  0.90  0.00
  GQ51                    1.00   0.02  0.00  0.00  0.17  0.80  0.00  0.00  0.36  0.00
  GQ52                    1.00   0.02  0.00  0.00  0.98  0.00  0.00  0.00  0.69  0.00
  GQ53                    1.00   0.02  0.00  0.00  0.98  0.00  0.00  0.00  0.32  0.00
  GQ54                    1.00   0.02  0.00  0.00  0.70  0.28  0.00  0.00  0.90  0.00
  GQ55                    1.00   0.02  0.00  0.00  0.97  0.00  0.00  0.00  0.90  0.00
  GQ56                    1.00   0.02  0.00  0.00  0.73  0.25  0.00  0.00  0.21  0.00
  GQ57                    1.00   0.02  0.00  0.00  0.98  0.00  0.00  0.00  0.90  0.00
  GQ58                    1.00   0.02  0.00  0.00  0.46  0.52  0.00  0.00  0.90  0.00
  GQ59                    1.00   0.02  0.00  0.00  0.98  0.00  0.00  0.00  0.33  0.00
  GQ60                    1.00   0.02  0.00  0.00  0.98  0.00  0.00  0.00  0.29  0.00
  GQ61                    1.00   0.02  0.00  0.00  0.98  0.00  0.00  0.00  0.90  0.00
  GQ62                    1.00   0.02  0.00  0.00  0.98  0.00  0.00  0.00  0.90  0.00
  GQ63                    1.00   0.02  0.00  0.00  0.96  0.01  0.00  0.00  0.90  0.00
  GQ64                    1.00   0.02  0.00  0.00  0.03  0.94  0.00  0.00  0.90  0.00
  GQ65                    1.00   0.02  0.00  0.00  0.98  0.00  0.00  0.00  0.90  0.00
  GQ66                    1.00   0.02  0.00  0.00  0.97  0.01  0.00  0.00  0.90  0.00
  GQ67                    1.00   0.02  0.00  0.00  0.98  0.00  0.00  0.00  0.24  0.00
  GQ68                    1.00   0.02  0.00  0.00  0.98  0.00  0.00  0.00  0.90  0.00
  GQ69                    1.00   0.02  0.00  0.00  0.44  0.54  0.00  0.00  0.90  0.00
  GQ70                    1.00   0.02  0.00  0.00  0.00  0.98  0.00  0.00  0.07  0.00
  GQ71                    1.00   0.02  0.00  0.00  0.00  0.98  0.00  0.00  0.03  0.00
  GQ72                    1.00   0.02  0.00  0.00  0.00  0.98  0.00  0.00  0.26  0.00
  GQ73                    1.00   0.02  0.00  0.00  0.00  0.97  0.00  0.00  0.06  0.00
  GQ74                    1.00   0.02  0.00  0.00  0.91  0.07  0.00  0.00  0.90  0.00
  GQ75                    1.00   0.02  0.00  0.00  0.98  0.00  0.00  0.00  0.90  0.00
  GQ76                    1.00   0.02  0.00  0.00  0.00  0.98  0.00  0.00  0.23  0.00
  GQ77                    1.00   0.02  0.98  0.00  0.00  0.00  0.00  0.00  0.00  0.00
  GQ78                    1.00   0.02  0.00  0.00  0.79  0.19  0.00  0.00  0.41  0.00
  GQ79                    1.00   0.02  0.00  0.00  0.98  0.00  0.00  0.00  0.24  0.00
  GQ80                    1.00   0.02  0.00  0.00  0.98  0.00  0.00  0.00  0.28  0.00
  GQ81                    1.00   0.02  0.00  0.00  0.98  0.00  0.00  0.00  0.00  0.00
  GQ82                    1.00   0.02  0.00  0.00  0.47  0.50  0.00  0.00  0.90  0.00
  GQ83                    1.00   0.02  0.00  0.00  0.00  0.98  0.00  0.00  0.90  0.00
  GQ84                    1.00   0.02  0.00  0.00  0.18  0.80  0.00  0.00  0.70  0.00
  GQ85                    1.00   0.02  0.00  0.00  0.98  0.00  0.00  0.00  0.26  0.00
  GQ86                    1.00   0.02  0.00  0.00  0.97  0.01  0.00  0.00  0.90  0.00
  GQ87                    1.00   0.02  0.00  0.00  0.98  0.00  0.00  0.00  0.90  0.00
  GQ88                    1.00   0.02  0.00  0.00  0.83  0.15  0.00  0.00  0.90  0.00
  GQ89                    1.00   0.02  0.00  0.00  0.98  0.00  0.00  0.00  0.90  0.00
  GQ90                    1.00   0.02  0.00  0.00  0.95  0.02  0.00  0.00  0.90  0.00
  GQ91                    1.00   0.02  0.00  0.00  0.97  0.01  0.00  0.00  0.90  0.00
  GQ92                    1.00   0.02  0.00  0.00  0.89  0.08  0.00  0.00  0.03  0.00
  GQ93                    1.00   0.02  0.00  0.00  0.98  0.00  0.00  0.00  0.60  0.00
  GQ94                    1.00   0.02  0.00  0.00  0.84  0.14  0.00  0.00  0.01  0.00
  GQ95                    1.00   0.02  0.00  0.00  0.98  0.00  0.00  0.00  0.90  0.00
  GQ96                    1.00   0.02  0.00  0.00  0.98  0.00  0.00  0.00  0.10  0.00
  GQ97                    1.00   0.02  0.00  0.00  0.00  0.97  0.00  0.00  0.41  0.00
  GQ98                    1.00   0.02  0.00  0.00  0.98  0.00  0.00  0.00  0.40  0.00
  GQ99                    1.00   0.02  0.00  0.00  0.97  0.00  0.00  0.00  0.90  0.00
  GQ100                   1.00   0.02  0.00  0.00  0.00  0.97  0.00  0.00  0.00  0.00
  GQ101                   1.00   0.02  0.00  0.00  0.97  0.01  0.00  0.00  0.90  0.00
  GQ102                   1.00   0.02  0.00  0.00  0.47  0.51  0.00  0.00  0.90  0.00
  GQ103                   1.00   0.02  0.00  0.00  0.98  0.00  0.00  0.00  0.60  0.00
  GQ104                   1.00   0.02  0.00  0.00  0.21  0.77  0.00  0.00  0.90  0.00
  GQ105                   1.00   0.02  0.00  0.00  0.98  0.00  0.00  0.00  0.19  0.00
  GQ106                   1.00   0.02  0.00  0.00  0.97  0.01  0.00  0.00  0.90  0.00
  GQ107                   1.00   0.02  0.00  0.00  0.56  0.42  0.00  0.00  0.58  0.00
  GQ108                   1.00   0.02  0.00  0.00  0.98  0.00  0.00  0.00  0.26  0.00
  GQ109                   1.00   0.02  0.00  0.00  0.91  0.07  0.00  0.00  0.89  0.00
  GQ110                   1.00   0.02  0.00  0.00  0.97  0.01  0.00  0.00  0.90  0.00
  GQ111                   1.00   0.02  0.00  0.00  0.97  0.01  0.00  0.00  0.84  0.00
  GQ112                   1.00   0.02  0.00  0.00  0.00  0.97  0.00  0.00  0.89  0.00
  GQ113                   1.00   0.02  0.00  0.00  0.00  0.98  0.00  0.00  0.87  0.00
  GQ114                   1.00   0.02  0.00  0.00  0.98  0.00  0.00  0.00  0.25  0.00
  GQ115                   1.00   0.02  0.00  0.00  0.96  0.01  0.00  0.00  0.90  0.00
  GQ116                   1.00   0.02  0.00  0.00  0.98  0.00  0.00  0.00  0.90  0.00
  GQ117                   1.00   0.02  0.00  0.00  0.00  0.97  0.00  0.00  0.00  0.00
  GQ118                   1.00   0.02  0.00  0.00  0.07  0.91  0.00  0.00  0.90  0.00
  GQ119                   1.00   0.02  0.00  0.00  0.71  0.27  0.00  0.00  0.40  0.00
  GQ120                   1.00   0.02  0.09  0.00  0.89  0.00  0.00  0.00  0.00  0.00
  GQ121                   1.00   0.02  0.00  0.00  0.97  0.01  0.00  0.00  0.24  0.00
  GQ122                   1.00   0.02  0.00  0.00  0.90  0.08  0.00  0.00  0.90  0.00
  GQ123                   1.00   0.02  0.00  0.00  0.80  0.18  0.00  0.00  0.90  0.00
  GQ124                   1.00   0.02  0.00  0.00  0.98  0.00  0.00  0.00  0.90  0.00
  GQ125                   1.00   0.02  0.00  0.00  0.97  0.01  0.00  0.00  0.80  0.00
  GQ126                   1.00   0.02  0.00  0.00  0.64  0.33  0.00  0.00  0.90  0.00
  GQ127                   1.00   0.02  0.00  0.00  0.98  0.00  0.00  0.00  0.48  0.00
  GQ128                   1.00   0.02  0.00  0.00  0.59  0.39  0.00  0.00  0.78  0.00
  GQ129                   1.00   0.02  0.00  0.00  0.98  0.00  0.00  0.00  0.28  0.00
  GQ130                   1.00   0.02  0.00  0.00  0.94  0.04  0.00  0.00  0.28  0.00
  GQ131                   1.00   0.02  0.00  0.00  0.83  0.15  0.00  0.00  0.50  0.00
  
  
  *************************
  Conduit Surcharge Summary
  *************************
  
  ----------------------------------------------------------------------------
                                                           Hours        Hours 
                         --------- Hours Full --------   Above Full   Capacity
  Conduit                Both Ends  Upstream  Dnstream   Normal Flow   Limited
  ----------------------------------------------------------------------------
  GQ4                         5.78      5.78      6.46      0.01         0.01
  GQ5                         2.91      2.91      6.37      0.01         0.01
  GQ6                         0.01      0.01      2.91      0.01         0.01
  GQ7                         4.87      4.87      5.73      0.01         0.01
  GQ8                         0.01      0.01      4.87      0.01         0.01
  GQ9                         0.01      0.01      6.73      0.01         0.01
  GQ10                        6.04      6.04      6.86      0.05         0.01
  GQ12                        0.01      0.01      6.22      0.01         0.01
  GQ13                        0.01      0.01      5.68      0.01         0.01
  GQ18                        0.01      0.01      6.28      6.32         0.01
  GQ20                        0.01      0.01      2.54      0.01         0.01
  GQ21                        0.01      0.01      2.54      0.01         0.01
  GQ24                        0.01      0.01      6.60      0.01         0.01
  GQ27                        0.01      0.01      6.25      0.01         0.01
  GQ28                        0.01      0.01      6.40      0.01         0.01
  GQ29                        6.15      6.15      6.40      0.01         0.01
  GQ30                        6.25      6.25      6.49      0.01         0.01
  GQ31                        0.01      0.01      7.02      0.01         0.01
  GQ32                        0.01      3.41      0.01      3.06         0.01
  GQ33                        3.41      3.41      7.02      0.01         0.01
  GQ34                        0.01      0.01      3.41      0.01         0.01
  GQ35                        3.10      3.10      3.41      0.07         0.01
  GQ36                        3.06      3.10      3.07      3.25         3.06
  GQ37                        0.01      0.01      6.68      0.01         0.01
  GQ38                        0.01      0.01      6.68      0.01         0.01
  GQ39                        2.56      2.56      6.22      0.01         0.01
  GQ40                        0.01      0.01      2.56      0.01         0.01
  GQ41                        0.01      0.01      6.38      0.01         0.01
  GQ42                        4.87      4.87      6.45      0.01         0.01
  GQ43                        3.38      3.38      4.87      0.12         0.01
  GQ44                        6.08      6.08      6.28      0.01         0.01
  GQ45                        0.01      0.01      5.68      0.01         0.01
  GQ46                        5.68      5.68      6.08      0.01         0.01
  GQ47                        0.01      0.01      6.47      0.01         0.01
  GQ48                        0.01      0.01      6.55      0.01         0.01
  GQ49                        0.01      0.01      6.55      0.01         0.01
  GQ50                        0.01      0.01      2.28      0.01         0.01
  GQ51                        0.01      2.28      0.01      2.70         0.01
  GQ52                        0.01      0.01      6.15      0.01         0.01
  GQ53                        4.82      4.82      6.48      0.01         0.01
  GQ54                        0.01      0.01      6.56      0.01         0.01
  GQ55                        0.01      0.01      6.56      0.01         0.01
  GQ56                        4.84      4.84      4.87      1.45         1.36
  GQ57                        0.01      0.01      4.84      0.01         0.01
  GQ58                        0.01      0.01      6.31      0.01         0.01
  GQ59                        4.87      4.87      6.31      0.01         0.01
  GQ60                        2.94      2.94      5.55      0.01         0.01
  GQ61                        0.01      0.01      5.85      0.01         0.01
  GQ62                        0.01      0.01      5.93      0.01         0.01
  GQ63                        0.01      0.01      5.99      0.01         0.01
  GQ66                        0.01      0.01      6.02      0.01         0.01
  GQ67                        5.87      5.87      5.94      0.01         0.01
  GQ68                        0.01      0.01      6.16      0.01         0.01
  GQ69                        0.01      0.01      6.44      0.01         0.01
  GQ75                        0.01      0.01      6.16      0.01         0.01
  GQ78                        3.30      3.30      6.62      0.01         0.01
  GQ79                        0.01      0.01      6.62      0.01         0.01
  GQ80                        3.30      3.30      6.31      0.01         0.01
  GQ81                        6.22      6.31      6.22      6.37         0.05
  GQ82                        0.01      0.01      6.22      0.01         0.01
  GQ84                        0.94      0.94      4.93      0.88         0.01
  GQ85                        0.94      0.94      6.86      0.01         0.01
  GQ86                        0.01      0.01      6.48      0.01         0.01
  GQ87                        0.01      0.01      6.48      0.01         0.01
  GQ88                        0.01      0.01      6.51      0.01         0.01
  GQ89                        0.01      0.01      6.24      0.01         0.01
  GQ90                        0.01      0.01      6.12      0.01         0.01
  GQ91                        0.01      0.01      6.33      0.01         0.01
  GQ92                        2.18      2.18      2.53      1.00         1.00
  GQ93                        2.53      2.53      3.28      0.01         0.01
  GQ94                        3.28      3.28      3.38      3.21         3.09
  GQ95                        0.01      0.01      6.58      0.01         0.01
  GQ96                        2.13      2.13      2.18      1.88         1.89
  GQ98                        0.01      0.01      6.43      0.01         0.01
  GQ99                        0.01      0.01      5.97      0.01         0.01
  GQ101                       0.01      0.01      6.33      0.01         0.01
  GQ102                       0.01      0.01      6.40      0.01         0.01
  GQ103                       0.01      0.01      6.54      0.01         0.01
  GQ104                       0.01      0.01      6.54      0.01         0.01
  GQ105                       6.36      6.36      6.40      5.96         0.01
  GQ106                       0.01      0.01      6.40      0.01         0.01
  GQ107                       2.56      2.56      6.40      0.01         0.01
  GQ108                       6.17      6.17      6.36      0.01         0.01
  GQ109                       0.01      0.01      2.56      0.01         0.01
  GQ110                       0.01      0.01      6.16      0.01         0.01
  GQ111                       0.01      0.01      6.33      0.01         0.01
  GQ114                       0.01      0.01      6.54      0.01         0.01
  GQ116                       0.01      0.01      6.48      0.01         0.01
  GQ119                       3.70      3.70      6.57      0.01         0.01
  GQ120                       0.01      0.01      6.50      0.01         0.01
  GQ121                       6.38      6.38      6.57      0.01         0.01
  GQ122                       0.01      0.01      6.38      0.01         0.01
  GQ123                       0.01      0.01      6.40      0.01         0.01
  GQ125                       0.01      0.01      6.33      0.01         0.01
  GQ126                       0.01      0.01      6.33      0.01         0.01
  GQ127                       3.38      3.38      3.70      0.05         0.01
  GQ128                       0.01      0.01      3.21      0.01         0.01
  GQ129                       5.73      5.73      6.60      0.01         0.01
  GQ130                       5.83      5.83      7.87      0.01         0.01
  GQ131                       2.28      2.28      7.06      0.01         0.01
  

  Analysis begun on:  Wed Mar 29 19:11:44 2023
  Analysis ended on:  Wed Mar 29 19:12:03 2023
  Total elapsed time: 00:00:19