
  OWA STORM WATER MANAGEMENT MODEL - VERSION v5.1.14 (OWA 2022-07-31)
  --------------------------------------------------------------

  INP file created by DSDAConvertToSwmmTools 
  version 0.0.1 EcoVista 
  Title/Notes: 
  
  
  *********************************************************
  NOTE: The summary statistics displayed in this report are
  based on results found at every computational time step,  
  not just on results from each reporting time step.
  *********************************************************
  
  ****************
  Analysis Options
  ****************
  Flow Units ............... CMS
  Process Models:
    Rainfall/Runoff ........ YES
    RDII ................... NO
    Snowmelt ............... NO
    Groundwater ............ NO
    Flow Routing ........... YES
    Ponding Allowed ........ NO
    Water Quality .......... NO
  Infiltration Method ...... GREEN_AMPT
  Flow Routing Method ...... DYNWAVE
  Surcharge Method ......... EXTRAN
  Starting Date ............ 07/15/2020 00:00:00
  Ending Date .............. 07/15/2020 12:00:00
  Antecedent Dry Days ...... 0.0
  Report Time Step ......... 00:30:00
  Wet Time Step ............ 00:05:00
  Dry Time Step ............ 01:00:00
  Routing Time Step ........ 30.00 sec
  Variable Time Step ....... YES
  Maximum Trials ........... 8
  Number of Threads ........ 1
  Head Tolerance ........... 0.001500 m
  
  
  **************************        Volume         Depth
  Runoff Quantity Continuity     hectare-m            mm
  **************************     ---------       -------
  Total Precipitation ......        99.513        24.900
  Evaporation Loss .........         4.044         1.012
  Infiltration Loss ........        26.594         6.654
  Surface Runoff ...........        62.345        15.600
  Final Storage ............         6.590         1.649
  Continuity Error (%) .....        -0.060
  
  
  **************************        Volume        Volume
  Flow Routing Continuity        hectare-m      10^6 ltr
  **************************     ---------     ---------
  Dry Weather Inflow .......         0.000         0.000
  Wet Weather Inflow .......        62.319       623.192
  Groundwater Inflow .......         0.000         0.000
  RDII Inflow ..............         0.000         0.000
  External Inflow ..........         0.000         0.000
  External Outflow .........         5.821        58.209
  Flooding Loss ............        55.192       551.926
  Evaporation Loss .........         0.000         0.000
  Exfiltration Loss ........         0.000         0.000
  Initial Stored Volume ....         0.000         0.000
  Final Stored Volume ......         1.161        11.605
  Continuity Error (%) .....         0.233
  
  
  *************************
  Highest Continuity Errors
  *************************
  Node jd51 (8.68%)
  Node jd64 (7.13%)
  Node jd59 (7.07%)
  Node jd31 (6.30%)
  Node jd55 (5.66%)
  
  
  ***************************
  Time-Step Critical Elements
  ***************************
  Link GQ73 (91.16%)
  
  
  ********************************
  Highest Flow Instability Indexes
  ********************************
  Link GQ67 (21)
  Link GQ114 (9)
  Link GQ29 (8)
  Link GQ3 (5)
  Link GQ121 (4)
  
  
  *************************
  Routing Time Step Summary
  *************************
  Minimum Time Step           :     1.28 sec
  Average Time Step           :    10.35 sec
  Maximum Time Step           :    30.00 sec
  Percent in Steady State     :    -0.00
  Average Iterations per Step :     4.06
  Percent Not Converging      :    14.45
  
  
  ***************************
  Subcatchment Runoff Summary
  ***************************
  
  ------------------------------------------------------------------------------------------------------------------------------
                            Total      Total      Total      Total     Imperv       Perv      Total       Total     Peak  Runoff
                           Precip      Runon       Evap      Infil     Runoff     Runoff     Runoff      Runoff   Runoff   Coeff
  Subcatchment                 mm         mm         mm         mm         mm         mm         mm    10^6 ltr      CMS
  ------------------------------------------------------------------------------------------------------------------------------
  1                         24.90       0.00       0.61      13.95       9.48       0.00       9.48        3.75     0.51   0.381
  2                         24.90       0.00       1.09       5.30      16.66       0.00      16.66       15.07     2.04   0.669
  3                         24.90       0.00       1.13       4.54      17.40       0.00      17.40        6.96     0.95   0.699
  4                         24.90       0.00       1.16       3.90      18.01       0.00      18.01        1.51     0.21   0.723
  5                         24.90       0.00       1.03       6.34      15.94       0.00      15.94        1.97     0.27   0.640
  6                         24.90       0.00       0.98       7.14      15.29       0.00      15.29        1.42     0.19   0.614
  7                         24.90       0.00       1.03       6.37      15.81       0.00      15.81        6.89     0.94   0.635
  8                         24.90       0.00       1.30       1.39      20.07       0.00      20.07        2.79     0.38   0.806
  9                         24.90       0.00       1.34       0.70      20.67       0.00      20.67        2.42     0.33   0.830
  10                        24.90       0.00       1.16       4.05      17.84       0.00      17.84        4.02     0.55   0.716
  11                        24.90       0.00       1.25       2.38      19.21       0.00      19.21        9.52     1.30   0.772
  12                        24.90       0.00       0.98       7.16      15.20       0.00      15.20        7.41     1.01   0.610
  13                        24.90       0.00       1.23       2.68      18.96       0.00      18.96        8.58     1.17   0.762
  14                        24.90       0.00       1.23       2.72      18.99       0.00      18.99        3.58     0.49   0.763
  15                        24.90       0.00       1.14       4.38      17.55       0.00      17.55        5.93     0.81   0.705
  16                        24.90       0.00       1.18       3.62      18.18       0.00      18.18        5.37     0.73   0.730
  17                        24.90       0.00       1.11       4.97      17.04       0.00      17.04        7.13     0.97   0.684
  18                        24.90       0.00       1.27       1.96      19.56       0.00      19.56        8.08     1.10   0.786
  19                        24.90       0.00       1.27       2.05      19.48       0.00      19.48        4.38     0.60   0.782
  20                        24.90       0.00       1.26       2.19      19.29       0.00      19.29       10.35     1.41   0.775
  21                        24.90       0.00       1.34       0.73      20.59       0.00      20.59        6.46     0.88   0.827
  22                        24.90       0.00       1.32       1.18      20.20       0.00      20.20        2.48     0.34   0.811
  23                        24.90       0.00       1.21       3.05      18.62       0.00      18.62       10.66     1.45   0.748
  24                        24.90       0.00       1.17       3.80      17.97       0.00      17.97        3.19     0.43   0.722
  25                        24.90       0.00       1.25       2.34      19.29       0.00      19.29        3.91     0.53   0.775
  26                        24.90       0.00       1.07       5.68      16.36       0.00      16.36        5.74     0.78   0.657
  27                        24.90       0.00       1.28       1.86      19.56       0.00      19.56        8.27     1.13   0.786
  28                        24.90       0.00       1.30       1.37      20.01       0.00      20.01        9.46     1.29   0.804
  29                        24.90       0.00       1.17       3.86      18.02       0.00      18.02        4.21     0.57   0.724
  30                        24.90       0.00       1.33       0.84      20.61       0.00      20.61        1.48     0.20   0.828
  31                        24.90       0.00       1.35       0.52      20.79       0.00      20.79        4.58     0.63   0.835
  32                        24.90       0.00       1.32       1.11      20.28       0.00      20.28        8.76     1.20   0.814
  33                        24.90       0.00       1.34       0.81      20.52       0.00      20.52        7.23     0.99   0.824
  34                        24.90       0.00       1.24       2.52      19.10       0.00      19.10        5.60     0.76   0.767
  35                        24.90       0.00       1.28       1.88      19.63       0.00      19.63        8.14     1.11   0.788
  36                        24.90       0.00       1.05       5.93      16.27       0.00      16.27        6.40     0.87   0.654
  37                        24.90       0.00       1.31       1.34      20.08       0.00      20.08        4.46     0.61   0.806
  38                        24.90       0.00       1.22       2.82      18.86       0.00      18.86        7.19     0.98   0.758
  39                        24.90       0.00       1.11       4.95      17.08       0.00      17.08        7.21     0.98   0.686
  40                        24.90       0.00       1.23       2.69      18.96       0.00      18.96        4.34     0.59   0.762
  41                        24.90       0.00       1.26       2.19      19.42       0.00      19.42        3.83     0.52   0.780
  42                        24.90       0.00       1.26       2.21      19.28       0.00      19.28        4.76     0.65   0.774
  43                        24.90       0.00       1.06       5.82      16.30       0.00      16.30       12.89     1.75   0.655
  44                        24.90       0.00       1.13       4.54      17.35       0.00      17.35        8.39     1.14   0.697
  45                        24.90       0.00       1.06       5.78      16.36       0.00      16.36       11.84     1.61   0.657
  46                        24.90       0.00       1.02       6.44      15.88       0.00      15.88        7.94     1.08   0.638
  47                        24.90       0.00       1.08       5.51      16.58       0.00      16.58       19.33     2.63   0.666
  48                        24.90       0.00       1.29       1.72      19.66       0.00      19.66       11.41     1.55   0.790
  49                        24.90       0.00       1.18       3.69      18.02       0.00      18.02       12.20     1.66   0.724
  50                        24.90       0.00       1.30       1.40      19.87       0.00      19.87        7.81     1.06   0.798
  51                        24.90       0.00       1.25       2.42      19.04       0.00      19.04        3.56     0.48   0.765
  52                        24.90       0.00       0.61      13.97       9.48       0.00       9.48        9.73     1.31   0.381
  53                        24.90       0.00       0.88       9.07      13.66       0.00      13.66       14.55     1.97   0.549
  54                        24.90       0.00       1.08       5.36      16.72       0.00      16.72        4.08     0.56   0.672
  55                        24.90       0.00       0.62      13.71       9.69       0.00       9.69        7.65     1.03   0.389
  56                        24.90       0.00       0.23      20.68       3.73       0.00       3.73        3.04     0.40   0.150
  57                        24.90       0.00       1.23       2.77      18.80       0.00      18.80       15.62     2.12   0.755
  58                        24.90       0.00       1.14       4.40      17.53       0.00      17.53        2.89     0.39   0.704
  59                        24.90       0.00       1.11       4.89      17.17       0.00      17.17        2.19     0.30   0.690
  60                        24.90       0.00       0.42      17.40       6.55       0.00       6.55        1.88     0.25   0.263
  61                        24.90       0.00       0.65      13.24      10.02       0.00      10.02        3.78     0.51   0.402
  62                        24.90       0.00       0.90       8.66      13.91       0.00      13.91       16.30     2.21   0.559
  63                        24.90       0.00       1.23       2.74      18.77       0.00      18.77       36.30     4.92   0.754
  64                        24.90       0.00       0.92       8.37      14.26       0.00      14.26        3.06     0.41   0.573
  65                        24.90       0.00       1.25       2.43      19.04       0.00      19.04       12.81     1.74   0.765
  66                        24.90       0.00       0.98       7.20      15.11       0.00      15.11        3.85     0.52   0.607
  67                        24.90       0.00       0.92       8.36      14.31       0.00      14.31        4.62     0.62   0.575
  68                        24.90       0.00       1.10       5.06      16.99       0.00      16.99        1.89     0.26   0.682
  69                        24.90       0.00       0.65      13.25      10.17       0.00      10.17        3.25     0.44   0.408
  70                        24.90       0.00       0.91       8.51      14.05       0.00      14.05       11.56     1.57   0.564
  71                        24.90       0.00       1.12       4.65      17.33       0.00      17.33        2.13     0.29   0.696
  72                        24.90       0.00       1.18       3.55      18.26       0.00      18.26        2.27     0.31   0.733
  73                        24.90       0.00       1.07       5.56      16.61       0.00      16.61        2.76     0.38   0.667
  74                        24.90       0.00       1.02       6.47      15.83       0.00      15.83        3.41     0.46   0.636
  75                        24.90       0.00       1.14       4.41      17.54       0.00      17.54        2.53     0.34   0.704
  76                        24.90       0.00       1.20       3.34      18.46       0.00      18.46        1.79     0.24   0.741
  77                        24.90       0.00       1.27       1.92      19.62       0.00      19.62        2.12     0.29   0.788
  78                        24.90       0.00       1.23       2.73      18.94       0.00      18.94        2.08     0.28   0.760
  79                        24.90       0.00       0.54      15.17       8.47       0.00       8.47        8.98     1.20   0.340
  80                        24.90       0.00       1.02       6.57      15.65       0.00      15.65        9.79     1.33   0.628
  81                        24.90       0.00       1.03       6.28      15.90       0.00      15.90        6.93     0.94   0.638
  82                        24.90       0.00       0.99       7.07      15.24       0.00      15.24       13.97     1.90   0.612
  83                        24.90       0.00       1.24       2.61      19.06       0.00      19.06        2.33     0.32   0.766
  84                        24.90       0.00       1.17       3.87      17.97       0.00      17.97        2.15     0.29   0.722
  85                        24.90       0.00       1.37       0.19      21.10       0.00      21.10        1.96     0.27   0.847
  86                        24.90       0.00       1.26       2.10      19.47       0.00      19.47        2.87     0.39   0.782
  87                        24.90       0.00       1.35       0.53      20.74       0.00      20.74        2.73     0.37   0.833
  88                        24.90       0.00       1.21       3.11      18.65       0.00      18.65        1.79     0.24   0.749
  89                        24.90       0.00       1.27       2.00      19.57       0.00      19.57        3.77     0.51   0.786
  90                        24.90       0.00       1.38       0.00      21.28       0.00      21.28        0.24     0.03   0.855
  91                        24.90       0.00       1.15       4.17      17.62       0.00      17.62        3.84     0.52   0.708
  92                        24.90       0.00       1.27       1.94      19.61       0.00      19.61        2.45     0.33   0.787
  93                        24.90       0.00       1.04       6.19      16.03       0.00      16.03        8.20     1.12   0.644
  94                        24.90       0.00       0.93       8.07      14.57       0.00      14.57        1.02     0.14   0.585
  95                        24.90       0.00       1.38       0.03      21.22       0.00      21.22        0.46     0.06   0.852
  96                        24.90       0.00       1.11       4.82      17.20       0.00      17.20        2.10     0.29   0.691
  97                        24.90       0.00       1.35       0.53      20.80       0.00      20.80        2.07     0.28   0.835
  98                        24.90       0.00       1.12       4.70      17.31       0.00      17.31        2.13     0.29   0.695
  99                        24.90       0.00       0.55      14.90       8.74       0.00       8.74        3.24     0.43   0.351
  100                       24.90       0.00       0.62      13.78       9.70       0.00       9.70        2.49     0.33   0.390
  101                       24.90       0.00       0.63      13.51       9.92       0.00       9.92        4.86     0.65   0.399
  102                       24.90       0.00       1.03       6.33      15.91       0.00      15.91        3.88     0.53   0.639
  103                       24.90       0.00       0.34      18.69       5.45       0.00       5.45        1.98     0.26   0.219
  104                       24.90       0.00       0.23      20.70       3.68       0.00       3.68        3.57     0.48   0.148
  105                       24.90       0.00       1.14       4.42      17.55       0.00      17.55        2.30     0.31   0.705
  106                       24.90       0.00       0.62      13.81       9.64       0.00       9.64        2.35     0.32   0.387
  
  
  ******************
  Node Depth Summary
  ******************
  
  ---------------------------------------------------------------------------------
                                 Average  Maximum  Maximum  Time of Max    Reported
                                   Depth    Depth      HGL   Occurrence   Max Depth
  Node                 Type       Meters   Meters   Meters  days hr:min      Meters
  ---------------------------------------------------------------------------------
  jd1                  JUNCTION     0.09     0.19   273.19     0  05:00        0.19
  jd2                  JUNCTION     0.40     3.00   270.00     0  04:32        2.09
  jd3                  JUNCTION     2.63     3.00   266.00     0  03:41        3.00
  jd4                  JUNCTION     1.14     3.00   270.00     0  04:07        3.00
  jd5                  JUNCTION     0.06     0.14   274.14     0  05:00        0.14
  jd6                  JUNCTION     0.08     0.17   275.17     0  05:00        0.17
  jd7                  JUNCTION     0.26     0.49   264.59     0  05:00        0.49
  jd8                  JUNCTION     1.49     3.00   267.00     0  03:44        3.00
  jd9                  JUNCTION     1.22     3.00   268.00     0  03:53        3.00
  jd10                 JUNCTION     2.65     3.00   273.00     0  03:35        3.00
  jd11                 JUNCTION     0.07     0.15   282.15     0  05:00        0.15
  jd12                 JUNCTION     2.66     3.00   272.00     0  03:32        3.00
  jd13                 JUNCTION     0.09     0.19   289.19     0  05:00        0.19
  jd14                 JUNCTION     0.20     0.52   280.52     0  05:00        0.52
  jd15                 JUNCTION     0.20     0.46   278.46     0  05:00        0.46
  jd16                 JUNCTION     0.22     0.49   274.49     0  05:00        0.49
  jd17                 JUNCTION     1.63     3.00   278.80     0  03:49        3.00
  jd18                 JUNCTION     0.34     3.00   282.00     0  04:46        2.17
  jd19                 JUNCTION     1.02     3.00   270.00     0  04:04        3.00
  jd20                 JUNCTION     0.16     0.29   273.29     0  05:00        0.29
  jd21                 JUNCTION     2.62     3.00   273.00     0  03:39        3.00
  jd22                 JUNCTION     1.49     3.00   275.00     0  04:07        3.00
  jd23                 JUNCTION     0.17     0.41   278.41     0  05:00        0.41
  jd24                 JUNCTION     0.10     0.22   285.22     0  05:00        0.22
  jd25                 JUNCTION     0.17     0.39   279.39     0  05:00        0.39
  jd26                 JUNCTION     0.27     3.00   288.00     0  04:51        2.40
  jd27                 JUNCTION     0.16     0.36   291.36     0  05:00        0.36
  jd28                 JUNCTION     2.67     3.00   290.00     0  03:28        3.00
  jd29                 JUNCTION     0.07     0.15   299.15     0  05:00        0.15
  jd30                 JUNCTION     0.10     0.21   290.21     0  05:00        0.21
  jd31                 JUNCTION     0.93     3.00   275.00     0  03:51        1.36
  jd32                 JUNCTION     2.66     3.00   275.00     0  03:32        3.00
  jd33                 JUNCTION     0.14     0.31   289.31     0  05:00        0.31
  jd34                 JUNCTION     0.16     0.38   294.38     0  05:00        0.38
  jd35                 JUNCTION     2.69     3.00   292.00     0  03:22        3.00
  jd36                 JUNCTION     0.60     3.00   302.00     0  04:22        3.00
  jd37                 JUNCTION     0.57     3.00   306.00     0  04:23        3.00
  jd38                 JUNCTION     0.29     0.71   297.71     0  05:00        0.71
  jd39                 JUNCTION     2.63     3.00   297.00     0  03:40        3.00
  jd40                 JUNCTION     0.94     3.00   302.00     0  04:12        3.00
  jd41                 JUNCTION     2.56     3.00   296.00     0  04:00        3.00
  jd42                 JUNCTION     0.14     0.32   305.32     0  05:00        0.32
  jd43                 JUNCTION     0.84     3.00   300.00     0  04:10        3.00
  jd44                 JUNCTION     0.89     3.00   286.00     0  04:13        3.00
  jd45                 JUNCTION     2.64     3.00   282.00     0  03:37        3.00
  jd46                 JUNCTION     0.21     0.46   275.46     0  05:00        0.46
  jd47                 JUNCTION     0.12     0.25   315.25     0  05:00        0.25
  jd48                 JUNCTION     0.08     0.17   325.17     0  05:00        0.17
  jd49                 JUNCTION     0.19     0.42   289.42     0  05:00        0.42
  jd50                 JUNCTION     2.68     3.00   278.00     0  03:26        3.00
  jd51                 JUNCTION     2.54     3.00   313.00     0  04:02        3.00
  jd52                 JUNCTION     0.48     3.00   326.00     0  04:32        1.99
  jd53                 JUNCTION     0.60     3.00   325.00     0  04:26        2.79
  jd54                 JUNCTION     0.21     0.46   326.46     0  05:00        0.46
  jd55                 JUNCTION     1.40     3.00   325.00     0  04:32        3.00
  jd56                 JUNCTION     0.14     0.32   327.32     0  05:00        0.32
  jd59                 JUNCTION     2.51     3.00   320.80     0  04:06        3.00
  jd60                 JUNCTION     2.66     3.00   319.00     0  03:31        3.00
  jd61                 JUNCTION     0.10     0.23   329.23     0  05:00        0.23
  jd62                 JUNCTION     0.05     0.10   335.10     0  05:00        0.10
  jd63                 JUNCTION     0.05     0.11   324.11     0  05:00        0.11
  jd64                 JUNCTION     2.34     3.00   321.00     0  04:06        2.85
  jd65                 JUNCTION     1.33     3.00   307.00     0  03:53        3.00
  jd66                 JUNCTION     2.65     3.00   304.00     0  03:36        3.00
  jd69                 JUNCTION     0.17     0.37   333.37     0  05:00        0.37
  jd79                 JUNCTION     2.47     3.00   274.00     0  03:29        3.00
  jd80                 JUNCTION     1.65     3.00   279.00     0  03:39        3.00
  jd81                 JUNCTION     0.11     0.24   288.24     0  05:00        0.24
  jd83                 JUNCTION     2.70     3.00   323.00     0  03:19        3.00
  jd84                 JUNCTION     0.17     0.43   323.43     0  05:00        0.43
  jd85                 JUNCTION     2.65     3.00   324.00     0  03:34        3.00
  jd87                 JUNCTION     2.66     3.00   322.00     0  03:33        3.00
  jd89                 JUNCTION     0.11     0.25   324.25     0  05:00        0.25
  jd90                 JUNCTION     0.10     0.22   328.22     0  05:00        0.22
  jd92                 JUNCTION     0.10     0.22   326.22     0  05:00        0.22
  jd93                 JUNCTION     0.58     3.00   327.00     0  04:25        2.69
  jd94                 JUNCTION     0.23     1.87   328.07     0  04:52        1.03
  jd95                 JUNCTION     0.25     0.64   327.64     0  05:01        0.64
  jd96                 JUNCTION     2.68     3.00   308.00     0  03:28        3.00
  jd97                 JUNCTION     0.25     0.60   327.80     0  05:00        0.59
  jd98                 JUNCTION     0.14     0.31   329.31     0  05:00        0.31
  jd99                 JUNCTION     2.64     3.00   327.00     0  03:36        3.00
  jd101                JUNCTION     0.08     0.17   321.17     0  05:00        0.17
  jd102                JUNCTION     0.17     0.39   324.39     0  05:00        0.39
  jd103                JUNCTION     0.08     0.18   318.18     0  05:00        0.18
  jd106                JUNCTION     2.58     3.00   287.00     0  03:50        3.00
  jd107                JUNCTION     0.15     0.34   332.34     0  05:00        0.34
  jd108                JUNCTION     1.05     1.48   327.48     0  03:31        1.38
  jd109                JUNCTION     0.12     0.26   343.26     0  05:00        0.26
  jd110                JUNCTION     2.66     3.00   327.00     0  03:33        3.00
  jd111                JUNCTION     0.05     0.11   344.11     0  05:00        0.11
  jd112                JUNCTION     0.07     0.15   334.15     0  05:00        0.15
  jd113                JUNCTION     0.07     0.16   348.16     0  05:00        0.16
  jd114                JUNCTION     2.65     3.00   317.00     0  03:35        3.00
  jd117                JUNCTION     1.07     3.00   319.00     0  03:40        1.92
  jd118                JUNCTION     0.07     0.15   330.15     0  05:00        0.15
  jd120                JUNCTION     0.12     0.26   327.26     0  05:00        0.26
  jd121                JUNCTION     0.12     0.26   320.26     0  05:00        0.26
  jd122                JUNCTION     2.63     3.00   276.00     0  03:38        3.00
  jd123                JUNCTION     2.61     3.00   276.20     0  03:41        3.00
  jd124                JUNCTION     2.71     3.00   271.00     0  03:15        3.00
  jd125                JUNCTION     1.08     3.00   278.00     0  04:05        3.00
  jd126                JUNCTION     2.70     3.00   275.00     0  03:21        3.00
  jd135                JUNCTION     0.10     0.22   289.22     0  05:00        0.22
  jd136                JUNCTION     0.19     0.43   341.43     0  05:00        0.43
  psk1                 OUTFALL      0.07     0.14   279.14     0  05:00        0.14
  psk2                 OUTFALL      0.09     0.21   270.21     0  05:00        0.21
  psk3                 OUTFALL      0.22     0.49   271.49     0  05:00        0.49
  psk4                 OUTFALL      0.00     0.00   280.00     0  00:00        0.00
  psk5                 OUTFALL      0.09     0.19   263.19     0  05:00        0.19
  psk6                 OUTFALL      0.06     0.13   259.13     0  05:00        0.13
  psk7                 OUTFALL      0.26     0.49   262.49     0  05:00        0.49
  psk8                 OUTFALL      0.00     0.00   317.00     0  00:00        0.00
  
  
  *******************
  Node Inflow Summary
  *******************
  
  -------------------------------------------------------------------------------------------------
                                  Maximum  Maximum                  Lateral       Total        Flow
                                  Lateral    Total  Time of Max      Inflow      Inflow     Balance
                                   Inflow   Inflow   Occurrence      Volume      Volume       Error
  Node                 Type           CMS      CMS  days hr:min    10^6 ltr    10^6 ltr     Percent
  -------------------------------------------------------------------------------------------------
  jd1                  JUNCTION     0.505    0.805     0  05:00        3.75        6.07       0.057
  jd2                  JUNCTION     0.780    1.062     0  05:00        5.74        7.87       0.111
  jd3                  JUNCTION     0.938    2.510     0  05:00        6.89        21.3       1.908
  jd4                  JUNCTION     1.127    1.257     0  05:00        8.26        9.24       0.168
  jd5                  JUNCTION     0.331    0.560     0  05:00        2.42         4.2       0.004
  jd6                  JUNCTION     0.382    0.382     0  05:00        2.79        2.79       0.020
  jd7                  JUNCTION     0.193    1.997     0  05:00        1.42        20.6       0.104
  jd8                  JUNCTION     0.268    1.214     0  05:00        1.97        14.4       0.740
  jd9                  JUNCTION     0.206    1.273     0  05:00        1.51        13.8       0.117
  jd10                 JUNCTION     0.548    0.695     0  05:00        4.02        5.11       2.006
  jd11                 JUNCTION     0.809    0.809     0  05:00        5.93        5.93      -0.005
  jd12                 JUNCTION     0.609    1.330     0  05:00        4.45        9.68       1.430
  jd13                 JUNCTION     1.104    1.104     0  05:00        8.07        8.07       0.010
  jd14                 JUNCTION     1.292    1.457     0  05:00        9.46        10.6       0.097
  jd15                 JUNCTION     0.533    1.214     0  05:00         3.9        8.63       0.308
  jd16                 JUNCTION     0.573    2.274     0  05:00         4.2        16.3       0.103
  jd17                 JUNCTION     1.198    2.785     0  05:00        8.76        23.7       1.228
  jd18                 JUNCTION     0.950    1.384     0  05:00        6.96        10.1       0.139
  jd19                 JUNCTION     0.882    1.597     0  05:00        6.47        13.8       0.081
  jd20                 JUNCTION     0.733    0.970     0  05:00        5.37        10.1       0.151
  jd21                 JUNCTION     0.340    2.330     0  05:00        2.48        20.1       1.690
  jd22                 JUNCTION     0.598    1.282     0  05:00        4.38        9.68       0.861
  jd23                 JUNCTION     0.592    1.694     0  05:00        4.33        12.1       0.064
  jd24                 JUNCTION     0.973    0.973     0  05:00        7.13        7.13       0.008
  jd25                 JUNCTION     0.764    1.110     0  05:00         5.6         8.1       0.086
  jd26                 JUNCTION     1.113    1.844     0  04:51        8.14        13.6       0.061
  jd27                 JUNCTION     1.143    1.808     0  05:00        8.38        13.9       0.100
  jd28                 JUNCTION     1.555    2.103     0  05:00        11.4        15.9       0.835
  jd29                 JUNCTION     0.627    0.627     0  05:00        4.58        4.58      -0.022
  jd30                 JUNCTION     0.650    2.063     0  05:00        4.76        14.1       0.046
  jd31                 JUNCTION     0.435    0.912     0  05:00        3.19        7.04       6.727
  jd32                 JUNCTION     0.884    3.205     0  05:00        6.46          27       0.921
  jd33                 JUNCTION     0.871    1.484     0  05:00         6.4        10.7       0.028
  jd34                 JUNCTION     1.077    1.077     0  05:00        7.93        7.93       0.024
  jd35                 JUNCTION     0.983    2.880     0  05:00        7.21          24       0.535
  jd36                 JUNCTION     1.660    2.548     0  05:00        12.2        19.6       0.099
  jd37                 JUNCTION     1.749    1.749     0  05:00        12.9        12.9       0.093
  jd38                 JUNCTION     1.609    2.557     0  05:00        11.8        19.5       0.143
  jd39                 JUNCTION     1.116    3.614     0  05:00         8.2        32.8       1.572
  jd40                 JUNCTION     1.898    4.087     0  05:00          14          33       0.146
  jd41                 JUNCTION     1.334    4.681     0  05:00        9.79        38.5       5.818
  jd42                 JUNCTION     1.740    1.909     0  05:00        12.8        14.1       0.137
  jd43                 JUNCTION     1.968    3.551     0  05:00        14.5        25.7       0.169
  jd44                 JUNCTION     2.629    5.031     0  05:00        19.3        43.9       0.103
  jd45                 JUNCTION     1.057    3.282     0  05:00        7.81        29.1       1.108
  jd46                 JUNCTION     0.483    0.483     0  05:00        3.56        3.56       0.197
  jd47                 JUNCTION     1.571    1.571     0  05:00        11.6        11.6      -0.167
  jd48                 JUNCTION     0.435    0.435     0  05:00        3.25        3.25      -0.036
  jd49                 JUNCTION     2.125    2.125     0  05:00        15.6        15.6       0.089
  jd50                 JUNCTION     2.210    4.854     0  05:00        16.3        46.3       0.920
  jd51                 JUNCTION     0.463    2.131     0  05:00        3.41        15.7       9.509
  jd52                 JUNCTION     0.942    3.686     0  04:31        6.93        24.9       0.154
  jd53                 JUNCTION     0.523    2.481     0  04:22        3.84        19.8       0.066
  jd54                 JUNCTION     0.283    1.405     0  05:00        2.07        10.3       0.097
  jd55                 JUNCTION     0.515    1.776     0  05:00        3.77        12.6       5.999
  jd56                 JUNCTION     0.313    0.915     0  05:00        2.29         6.7       0.026
  jd59                 JUNCTION     0.310    1.540     0  05:00        2.27        10.9       7.612
  jd60                 JUNCTION     0.556    1.179     0  05:00        4.08        8.71       1.499
  jd61                 JUNCTION     0.623    0.701     0  05:00        4.62         5.2       0.027
  jd62                 JUNCTION     0.251    0.251     0  05:00        1.88        1.88      -0.022
  jd63                 JUNCTION     0.345    0.345     0  05:00        2.53        2.53      -0.024
  jd64                 JUNCTION     0.290    0.716     0  05:00        2.12        5.25       7.680
  jd65                 JUNCTION     4.918    4.918     0  05:00        36.3        36.3       0.073
  jd66                 JUNCTION     0.651    1.889     0  05:00        4.86        14.1       2.286
  jd69                 JUNCTION     1.204    1.238     0  05:00        8.98        9.23       0.009
  jd79                 JUNCTION     1.171    2.044     0  04:46        8.57        15.4       1.136
  jd80                 JUNCTION     1.301    1.817     0  05:00        9.52        12.8       0.284
  jd81                 JUNCTION     0.988    0.988     0  05:00        7.23        7.23       0.002
  jd83                 JUNCTION     1.031    1.263     0  05:00        7.64        9.92       0.840
  jd84                 JUNCTION     1.310    1.310     0  05:00        9.72        9.72       0.026
  jd85                 JUNCTION     0.298    0.488     0  05:00        2.19         3.6       2.382
  jd87                 JUNCTION     0.244    0.588     0  05:00        1.79        4.34       1.704
  jd89                 JUNCTION     0.284    0.284     0  05:00        2.08        2.08       0.012
  jd90                 JUNCTION     0.290    0.290     0  05:00        2.12        2.12      -0.051
  jd92                 JUNCTION     0.244    0.244     0  05:00        1.79        1.79      -0.018
  jd93                 JUNCTION     0.523    1.100     0  05:00        3.85        8.32       0.124
  jd94                 JUNCTION     0.033    0.615     0  04:39       0.244        4.48       0.117
  jd95                 JUNCTION     0.063    0.577     0  04:52       0.463        4.24       0.138
  jd96                 JUNCTION     0.475    0.634     0  05:00        3.57        4.73       2.034
  jd97                 JUNCTION     0.513    0.513     0  05:00        3.77        3.77       0.017
  jd98                 JUNCTION     0.286    0.286     0  05:00         2.1         2.1       0.021
  jd99                 JUNCTION     0.138    0.370     0  05:00        1.02        3.19       1.763
  jd101                JUNCTION     0.375    0.748     0  05:00        2.76        5.48      -0.106
  jd102                JUNCTION     0.373    0.373     0  05:00        2.73        2.73       0.075
  jd103                JUNCTION     0.257    0.257     0  05:00        1.89        1.89      -0.015
  jd106                JUNCTION     0.202    1.208     0  05:00        1.48        8.65       4.660
  jd107                JUNCTION     0.291    0.955     0  05:00        2.13        7.03       0.089
  jd108                JUNCTION     0.316    0.316     0  05:00        2.35        2.37       2.819
  jd109                JUNCTION     0.528    0.528     0  05:00        3.88        3.88       0.012
  jd110                JUNCTION     0.401    0.598     0  05:00        3.04        4.51       3.405
  jd111                JUNCTION     0.333    0.333     0  05:00        2.49        2.49      -0.037
  jd112                JUNCTION     0.392    1.089     0  05:00        2.87        8.08       0.010
  jd113                JUNCTION     0.264    0.264     0  05:00        1.98        1.98      -0.031
  jd114                JUNCTION     0.318    3.551     0  04:52        2.33        29.2       1.089
  jd117                JUNCTION     0.293    0.961     0  05:00        2.14        7.17       2.160
  jd118                JUNCTION     0.268    0.268     0  05:00        1.96        1.96      -0.027
  jd120                JUNCTION     0.335    0.335     0  05:00        2.45        2.45      -0.008
  jd121                JUNCTION     0.413    0.413     0  05:00        3.06        3.06       0.011
  jd122                JUNCTION     0.982    3.699     0  05:00        7.19          34       1.658
  jd123                JUNCTION     1.010    3.211     0  05:00        7.41        32.2       2.200
  jd124                JUNCTION     1.454    2.527     0  05:00        10.7        24.8       0.225
  jd125                JUNCTION     1.410    3.085     0  05:00        10.3        29.9       0.055
  jd126                JUNCTION     2.045    2.816     0  05:00        15.1          21       0.477
  jd135                JUNCTION     0.523    0.523     0  05:00        3.83        3.83      -0.000
  jd136                JUNCTION     0.434    0.697     0  05:00        3.24        5.22       0.067
  psk1                 OUTFALL      0.000    0.521     0  05:00           0        3.84       0.000
  psk2                 OUTFALL      0.000    1.542     0  05:00           0        10.4       0.000
  psk3                 OUTFALL      0.000    2.271     0  05:00           0        16.3       0.000
  psk4                 OUTFALL      0.000    0.000     0  00:00           0           0       0.000 ltr
  psk5                 OUTFALL      0.000    0.522     0  05:00           0        3.94       0.000
  psk6                 OUTFALL      0.000    0.429     0  05:00           0        3.22       0.000
  psk7                 OUTFALL      0.000    1.996     0  05:00           0        20.5       0.000
  psk8                 OUTFALL      0.000    0.000     0  00:00           0           0       0.000 ltr
  
  
  **********************
  Node Surcharge Summary
  **********************
  
  Surcharging occurs when water rises above the top of the highest conduit.
  ---------------------------------------------------------------------
                                               Max. Height   Min. Depth
                                   Hours       Above Crown    Below Rim
  Node                 Type      Surcharged         Meters       Meters
  ---------------------------------------------------------------------
  jd2                  JUNCTION        0.62          2.200        0.000
  jd3                  JUNCTION        8.32          2.200        0.000
  jd4                  JUNCTION        2.13          2.200        0.000
  jd8                  JUNCTION        3.52          2.200        0.000
  jd9                  JUNCTION        2.44          2.200        0.000
  jd10                 JUNCTION        8.42          2.400        0.000
  jd12                 JUNCTION        8.46          2.400        0.000
  jd17                 JUNCTION        4.47          2.200        0.000
  jd18                 JUNCTION        0.33          2.000        0.000
  jd19                 JUNCTION        2.00          2.200        0.000
  jd21                 JUNCTION        8.34          2.200        0.000
  jd22                 JUNCTION        8.24          2.400        0.000
  jd26                 JUNCTION        0.21          2.400        0.000
  jd28                 JUNCTION        8.53          2.400        0.000
  jd31                 JUNCTION        8.14          2.200        0.000
  jd32                 JUNCTION        8.46          2.200        0.000
  jd35                 JUNCTION        8.63          2.400        0.000
  jd36                 JUNCTION        0.88          2.400        0.000
  jd37                 JUNCTION        0.78          2.400        0.000
  jd39                 JUNCTION        8.33          2.000        0.000
  jd40                 JUNCTION        1.83          2.200        0.000
  jd41                 JUNCTION        8.00          1.000        0.000
  jd43                 JUNCTION        1.23          2.200        0.000
  jd44                 JUNCTION        1.46          2.000        0.000
  jd45                 JUNCTION        8.38          2.000        0.000
  jd50                 JUNCTION        8.55          2.200        0.000
  jd51                 JUNCTION        7.96          1.350        0.000
  jd52                 JUNCTION        0.65          1.500        0.000
  jd53                 JUNCTION        0.84          1.800        0.000
  jd55                 JUNCTION        1.95          1.500        0.000
  jd59                 JUNCTION        7.90          1.500        0.000
  jd60                 JUNCTION        8.48          2.400        0.000
  jd64                 JUNCTION        7.91          1.800        0.000
  jd65                 JUNCTION        2.58          2.400        0.000
  jd66                 JUNCTION        8.40          2.200        0.000
  jd79                 JUNCTION        8.51          2.400        0.000
  jd80                 JUNCTION        5.96          2.400        0.000
  jd83                 JUNCTION        8.68          2.400        0.000
  jd85                 JUNCTION        8.44          2.400        0.000
  jd87                 JUNCTION        8.45          2.400        0.000
  jd93                 JUNCTION        0.91          2.200        0.000
  jd94                 JUNCTION        0.23          1.069        1.131
  jd96                 JUNCTION        8.53          2.200        0.000
  jd99                 JUNCTION        8.39          2.400        0.000
  jd106                JUNCTION        8.16          2.000        0.000
  jd108                JUNCTION        8.48          0.481        1.519
  jd110                JUNCTION        8.44          2.000        0.000
  jd114                JUNCTION        8.41          2.000        0.000
  jd117                JUNCTION        8.33          2.200        0.000
  jd122                JUNCTION        8.36          2.200        0.000
  jd123                JUNCTION        8.30          2.200        0.000
  jd124                JUNCTION        8.74          2.400        0.000
  jd125                JUNCTION        2.14          2.200        0.000
  jd126                JUNCTION        8.65          2.400        0.000
  
  
  *********************
  Node Flooding Summary
  *********************
  
  Flooding refers to all water that overflows a node, whether it ponds or not.
  --------------------------------------------------------------------------
                                                             Total   Maximum
                                 Maximum   Time of Max       Flood    Ponded
                        Hours       Rate    Occurrence      Volume     Depth
  Node                 Flooded       CMS   days hr:min    10^6 ltr    Meters
  --------------------------------------------------------------------------
  jd2                     0.01     0.141      0  04:32       0.001     0.000
  jd3                     8.32     2.510      0  05:00      20.910     0.000
  jd4                     1.92     0.747      0  05:00       2.669     0.000
  jd8                     1.48     0.149      0  04:45       0.592     0.000
  jd9                     1.35     0.328      0  05:00       1.322     0.000
  jd10                    8.42     0.695      0  05:00       5.008     0.000
  jd12                    8.46     1.330      0  05:00       9.542     0.000
  jd17                    2.41     1.956      0  05:00       8.877     0.000
  jd18                    0.01     0.200      0  04:46       0.002     0.000
  jd19                    1.09     0.529      0  05:00       1.518     0.000
  jd21                    8.15     2.330      0  05:00      19.502     0.000
  jd22                    1.11     0.459      0  05:00       1.283     0.000
  jd26                    0.01     0.161      0  04:51       0.002     0.000
  jd28                    8.53     2.103      0  05:00      15.791     0.000
  jd31                    0.01     0.705      0  03:51       0.007     0.000
  jd32                    8.46     3.205      0  05:00      26.755     0.000
  jd35                    8.63     2.880      0  05:00      23.879     0.000
  jd36                    0.73     0.450      0  05:00       0.889     0.000
  jd37                    0.68     0.287      0  04:23       0.465     0.000
  jd39                    8.33     3.614      0  05:00      32.302     0.000
  jd40                    1.30     1.525      0  05:00       5.425     0.000
  jd41                    8.00     4.680      0  05:00      36.396     0.000
  jd43                    1.13     1.720      0  05:00       5.280     0.000
  jd44                    0.99     1.204      0  04:13       2.983     0.000
  jd45                    8.38     3.282      0  05:00      28.827     0.000
  jd50                    8.55     4.854      0  05:00      45.895     0.000
  jd51                    7.96     2.131      0  05:00      14.335     0.000
  jd52                    0.01     1.059      0  04:32       0.013     0.000
  jd53                    0.02     0.334      0  04:26       0.005     0.000
  jd55                    0.62     1.284      0  05:00       2.309     0.000
  jd59                    7.90     1.540      0  05:00      10.123     0.000
  jd60                    8.48     1.179      0  05:00       8.585     0.000
  jd64                    0.01     0.384      0  04:06       0.011     0.000
  jd65                    2.51     3.824      0  05:00      17.635     0.000
  jd66                    8.40     1.889      0  05:00      13.772     0.000
  jd79                    3.61     1.806      0  04:46      10.482     0.000
  jd80                    2.68     1.659      0  05:00       8.318     0.000
  jd83                    8.68     1.263      0  05:00       9.836     0.000
  jd85                    8.44     0.488      0  05:00       3.518     0.000
  jd87                    8.45     0.588      0  05:00       4.268     0.000
  jd93                    0.01     0.069      0  04:25       0.000     0.000
  jd96                    8.53     0.634      0  05:00       4.633     0.000
  jd99                    8.39     0.370      0  05:00       3.138     0.000
  jd106                   8.16     1.208      0  05:00       8.264     0.000
  jd110                   8.44     0.598      0  05:00       4.360     0.000
  jd114                   8.34     3.551      0  05:00      28.766     0.000
  jd117                   0.01     0.482      0  03:40       0.006     0.000
  jd122                   8.31     3.699      0  05:00      33.301     0.000
  jd123                   6.73     2.896      0  05:00      22.531     0.000
  jd124                   8.74     2.527      0  05:00      24.700     0.000
  jd125                   1.19     0.699      0  05:00       2.028     0.000
  jd126                   8.65     2.816      0  05:00      20.873     0.000
  
  
  ***********************
  Outfall Loading Summary
  ***********************
  
  -----------------------------------------------------------
                         Flow       Avg       Max       Total
                         Freq      Flow      Flow      Volume
  Outfall Node           Pcnt       CMS       CMS    10^6 ltr
  -----------------------------------------------------------
  psk1                  95.37     0.168     0.521       3.843
  psk2                  94.37     0.466     1.542      10.413
  psk3                  95.97     0.709     2.271      16.262
  psk4                   0.00     0.000     0.000       0.000
  psk5                  94.42     0.173     0.522       3.942
  psk6                  94.46     0.141     0.429       3.221
  psk7                  94.30     0.847     1.996      20.528
  psk8                   0.00     0.000     0.000       0.000
  -----------------------------------------------------------
  System                71.11     2.504     0.000      58.209
  
  
  ********************
  Link Flow Summary
  ********************
  
  -----------------------------------------------------------------------------
                                 Maximum  Time of Max   Maximum    Max/    Max/
                                  |Flow|   Occurrence   |Veloc|    Full    Full
  Link                 Type          CMS  days hr:min     m/sec    Flow   Depth
  -----------------------------------------------------------------------------
  GQ1                  CONDUIT     0.300     0  05:00      1.93    0.79    0.54
  GQ2                  CONDUIT     0.909     0  05:00      2.46    0.43    0.48
  GQ3                  CONDUIT     0.521     0  05:00      5.91    0.02    0.10
  GQ4                  CONDUIT     0.510     0  04:37      1.80    1.00    1.00
  GQ5                  CONDUIT     1.062     0  05:00      2.11    0.88    1.00
  GQ6                  CONDUIT     0.282     0  05:00      1.18    0.13    0.62
  GQ7                  CONDUIT     1.675     0  04:26      3.59    1.00    1.00
  GQ8                  CONDUIT     0.571     0  05:00      1.39    0.55    0.76
  GQ9                  CONDUIT     1.551     0  05:00      3.76    0.55    0.76
  GQ10                 CONDUIT     1.135     0  03:52      4.10    1.04    1.00
  GQ11                 CONDUIT     0.169     0  05:00      1.70    0.18    0.41
  GQ12                 CONDUIT     0.199     0  05:00      1.01    0.22    0.66
  GQ13                 CONDUIT     0.131     0  05:00      0.45    0.06    0.58
  GQ14                 CONDUIT     0.065     0  05:00      0.98    0.09    0.19
  GQ15                 CONDUIT     0.164     0  05:00      4.21    0.66    0.54
  GQ16                 CONDUIT     1.414     0  05:00      3.99    0.68    0.46
  GQ17                 CONDUIT     0.316     0  05:00      1.62    0.10    0.41
  GQ18                 CONDUIT     1.065     0  05:00      2.50    4.80    0.80
  GQ19                 CONDUIT     0.423     0  05:00      1.96    0.05    0.32
  GQ20                 CONDUIT     0.093     0  05:00      0.44    0.05    0.58
  GQ21                 CONDUIT     0.341     0  05:00      1.37    0.11    0.61
  GQ22                 CONDUIT     0.345     0  05:00      1.71    0.11    0.30
  GQ23                 CONDUIT     0.655     0  05:00      2.22    0.32    0.40
  GQ24                 CONDUIT     1.009     0  05:00      2.46    0.50    0.76
  GQ25                 CONDUIT     0.613     0  05:00      3.67    0.69    0.57
  GQ26                 CONDUIT     0.447     0  05:00      2.57    0.52    0.60
  GQ27                 CONDUIT     0.684     0  05:00      2.68    0.69    0.85
  GQ28                 CONDUIT     0.255     0  05:00      0.70    0.27    0.68
  GQ29                 CONDUIT     0.912     0  05:00      1.81    0.43    1.00
  GQ30                 CONDUIT     0.824     0  05:10      2.91    1.00    1.00
  GQ31                 CONDUIT     0.464     0  05:00      1.88    0.62    0.82
  GQ32                 CONDUIT     0.664     0  05:00      2.94    1.07    0.80
  GQ33                 CONDUIT     1.434     0  04:39      5.07    1.00    1.00
  GQ34                 CONDUIT     0.348     0  05:00      1.50    0.55    0.76
  GQ35                 CONDUIT     0.579     0  04:22      2.16    1.07    1.00
  GQ36                 CONDUIT     0.953     0  04:24      3.37    1.18    1.00
  GQ37                 CONDUIT     0.375     0  05:00      1.55    0.54    0.80
  GQ38                 CONDUIT     0.174     0  05:00      0.85    0.25    0.68
  GQ39                 CONDUIT     0.756     0  05:00      2.67    0.97    1.00
  GQ40                 CONDUIT     0.530     0  05:00      2.45    0.66    0.80
  GQ41                 CONDUIT     1.139     0  05:00      1.59    0.53    0.86
  GQ42                 CONDUIT     1.359     0  04:46      2.70    1.00    1.00
  GQ43                 CONDUIT     2.312     0  04:23      4.70    1.03    1.00
  GQ44                 CONDUIT     0.946     0  04:42      1.88    1.00    1.00
  GQ45                 CONDUIT     0.715     0  05:00      1.95    0.29    0.68
  GQ46                 CONDUIT     1.068     0  04:39      2.12    1.00    1.00
  GQ47                 CONDUIT     0.147     0  05:00      0.79    0.14    0.63
  GQ48                 CONDUIT     0.146     0  05:00      0.78    0.14    0.63
  GQ49                 CONDUIT     0.575     0  05:00      2.91    0.22    0.66
  GQ50                 CONDUIT     0.165     0  05:00      1.04    0.22    0.59
  GQ51                 CONDUIT     0.680     0  05:00      2.75    1.04    0.82
  GQ52                 CONDUIT     0.478     0  05:00      1.12    0.64    0.79
  GQ53                 CONDUIT     2.225     0  04:43      2.83    1.00    1.00
  GQ54                 CONDUIT     0.357     0  05:00      1.71    0.31    0.69
  GQ55                 CONDUIT     0.267     0  05:00      1.38    0.18    0.64
  GQ56                 CONDUIT     1.977     0  04:10      4.13    1.08    1.00
  GQ57                 CONDUIT     0.505     0  05:00      1.35    0.33    0.70
  GQ58                 CONDUIT     1.052     0  05:00      2.81    0.33    0.70
  GQ59                 CONDUIT     1.203     0  04:34      2.39    1.00    1.00
  GQ60                 CONDUIT     1.736     0  04:31      1.19    0.42    1.00
  GQ61                 CONDUIT     0.229     0  05:00      0.32    0.03    0.56
  GQ62                 CONDUIT     0.478     0  05:00      0.42    0.05    0.57
  GQ63                 CONDUIT     1.092     0  05:00      0.81    0.03    0.56
  GQ64                 CONDUIT     0.077     0  05:00      1.29    0.06    0.27
  GQ65                 CONDUIT     0.033     0  05:00      0.33    0.06    0.39
  GQ66                 CONDUIT     0.136     0  05:00      0.50    0.04    0.57
  GQ67                 CONDUIT     0.716     0  05:00      0.63    0.50    1.00
  GQ68                 CONDUIT     0.683     0  05:00      1.25    0.22    0.66
  GQ69                 CONDUIT     1.238     0  05:00      3.14    0.44    0.73
  GQ70                 CONDUIT     0.429     0  05:00      7.67    0.06    0.17
  GQ71                 CONDUIT     0.522     0  05:00      5.60    0.13    0.24
  GQ72                 CONDUIT     1.996     0  05:00      5.27    0.48    0.49
  GQ73                 CONDUIT     1.542     0  05:00     12.52    0.10    0.21
  GQ74                 CONDUIT     0.279     0  05:00      1.32    0.05    0.32
  GQ75                 CONDUIT     0.347     0  05:00      0.69    0.10    0.61
  GQ76                 CONDUIT     2.271     0  05:00      5.86    0.49    0.49
  GQ77                 CONDUIT     0.000     0  00:00      0.00    0.00    0.23
  GQ78                 CONDUIT     0.881     0  04:46      3.11    0.96    1.00
  GQ79                 CONDUIT     0.237     0  05:00      1.08    0.51    0.75
  GQ80                 CONDUIT     0.517     0  05:00      1.83    0.85    1.00
  GQ81                 CONDUIT     0.542     0  03:49      1.92    3.43    1.00
  GQ82                 CONDUIT     0.475     0  05:00      2.26    0.33    0.70
  GQ83                 CONDUIT     0.512     0  05:00      2.84    0.33    0.61
  GQ84                 CONDUIT     1.078     0  05:00      4.19    0.85    0.86
  GQ85                 CONDUIT     0.232     0  05:00      0.90    0.40    0.86
  GQ86                 CONDUIT     0.140     0  05:00      0.82    0.06    0.58
  GQ87                 CONDUIT     0.050     0  05:00      0.29    0.07    0.59
  GQ88                 CONDUIT     0.344     0  05:00      1.65    0.31    0.69
  GQ89                 CONDUIT     0.284     0  05:00      1.32    0.37    0.71
  GQ90                 CONDUIT     0.290     0  05:00      1.40    0.29    0.68
  GQ91                 CONDUIT     0.244     0  05:00      1.18    0.30    0.69
  GQ92                 CONDUIT     0.589     0  05:05      1.77    0.85    0.90
  GQ93                 CONDUIT     0.704     0  05:11      1.61    0.60    1.00
  GQ94                 CONDUIT     1.100     0  05:00      2.19    1.30    1.00
  GQ95                 CONDUIT     0.158     0  05:00      0.54    0.04    0.57
  GQ96                 CONDUIT     0.514     0  04:52      1.35    0.88    0.77
  GQ97                 CONDUIT     0.286     0  05:00      1.93    0.52    0.52
  GQ98                 CONDUIT     0.232     0  05:00      1.00    0.33    0.76
  GQ99                 CONDUIT     0.519     0  05:00      0.57    0.03    0.56
  GQ100                CONDUIT     0.373     0  05:00      2.86    0.64    0.47
  GQ101                CONDUIT     0.257     0  05:00      1.33    0.19    0.65
  GQ102                CONDUIT     1.036     0  05:00      2.79    0.31    0.69
  GQ103                CONDUIT     0.454     0  05:00      1.82    0.70    0.82
  GQ104                CONDUIT     0.912     0  05:00      3.77    0.66    0.80
  GQ105                CONDUIT     0.664     0  03:41      1.32    2.11    1.00
  GQ106                CONDUIT     0.286     0  05:00      1.39    0.29    0.68
  GQ107                CONDUIT     1.086     0  05:00      3.89    0.97    1.00
  GQ108                CONDUIT     0.829     0  04:41      1.65    1.00    1.00
  GQ109                CONDUIT     0.210     0  05:00      1.34    0.28    0.68
  GQ110                CONDUIT     0.347     0  05:00      0.74    0.05    0.58
  GQ111                CONDUIT     0.313     0  05:00      1.52    0.28    0.68
  GQ112                CONDUIT     0.955     0  05:00      2.94    0.17    0.33
  GQ113                CONDUIT     0.528     0  05:00      3.74    0.40    0.50
  GQ114                CONDUIT     0.316     0  05:00      0.58    0.13    0.66
  GQ115                CONDUIT     0.137     0  05:00      0.94    0.02    0.19
  GQ116                CONDUIT     0.197     0  05:00      0.44    0.03    0.56
  GQ117                CONDUIT     0.697     0  05:00      4.33    0.44    0.36
  GQ118                CONDUIT     0.264     0  05:00      1.72    0.09    0.37
  GQ119                CONDUIT     2.296     0  04:32      4.57    1.00    1.00
  GQ120                CONDUIT     0.000     0  00:00      0.00    0.00    0.50
  GQ121                CONDUIT     0.961     0  05:00      1.91    0.68    1.00
  GQ122                CONDUIT     0.400     0  05:00      1.69    0.07    0.59
  GQ123                CONDUIT     0.268     0  05:00      1.45    0.13    0.62
  GQ124                CONDUIT     0.168     0  05:00      0.98    0.07    0.38
  GQ125                CONDUIT     0.335     0  05:00      1.55    0.38    0.71
  GQ126                CONDUIT     0.413     0  05:00      1.90    0.39    0.72
  GQ127                CONDUIT     0.816     0  05:16      1.71    1.04    1.00
  GQ128                CONDUIT     1.405     0  05:00      2.47    0.31    0.69
  GQ129                CONDUIT     1.313     0  04:46      2.61    1.00    1.00
  GQ130                CONDUIT     1.073     0  04:22      3.79    1.00    1.00
  GQ131                CONDUIT     0.772     0  05:00      2.80    0.89    0.94
  
  
  ***************************
  Flow Classification Summary
  ***************************
  
  -------------------------------------------------------------------------------------
                      Adjusted    ---------- Fraction of Time in Flow Class ---------- 
                       /Actual         Up    Down  Sub   Sup   Up    Down  Norm  Inlet 
  Conduit               Length    Dry  Dry   Dry   Crit  Crit  Crit  Crit  Ltd   Ctrl  
  -------------------------------------------------------------------------------------
  GQ1                     1.00   0.03  0.00  0.00  0.07  0.90  0.00  0.00  0.00  0.00
  GQ2                     1.00   0.03  0.00  0.00  0.08  0.89  0.00  0.00  0.91  0.00
  GQ3                     1.00   0.05  0.00  0.00  0.02  0.94  0.00  0.00  0.10  0.00
  GQ4                     1.00   0.03  0.00  0.00  0.97  0.00  0.00  0.00  0.67  0.00
  GQ5                     1.00   0.03  0.00  0.00  0.97  0.00  0.00  0.00  0.81  0.00
  GQ6                     1.00   0.03  0.00  0.00  0.97  0.00  0.00  0.00  0.91  0.00
  GQ7                     1.00   0.03  0.00  0.00  0.36  0.61  0.00  0.00  0.05  0.00
  GQ8                     1.00   0.03  0.00  0.00  0.97  0.00  0.00  0.00  0.92  0.00
  GQ9                     1.00   0.03  0.00  0.00  0.73  0.24  0.00  0.00  0.92  0.00
  GQ10                    1.00   0.03  0.00  0.00  0.79  0.19  0.00  0.00  0.69  0.00
  GQ11                    1.00   0.03  0.00  0.00  0.42  0.55  0.00  0.00  0.86  0.00
  GQ12                    1.00   0.03  0.00  0.00  0.97  0.00  0.00  0.00  0.91  0.00
  GQ13                    1.00   0.03  0.01  0.00  0.96  0.00  0.00  0.00  0.91  0.00
  GQ14                    1.00   0.03  0.00  0.00  0.97  0.00  0.00  0.00  0.04  0.00
  GQ15                    1.00   0.03  0.00  0.00  0.03  0.94  0.00  0.00  0.01  0.00
  GQ16                    1.00   0.03  0.00  0.00  0.04  0.93  0.00  0.00  0.00  0.00
  GQ17                    1.00   0.03  0.00  0.00  0.76  0.21  0.00  0.00  0.91  0.00
  GQ18                    1.00   0.03  0.00  0.00  0.83  0.14  0.00  0.00  0.19  0.00
  GQ19                    1.00   0.03  0.00  0.00  0.64  0.33  0.00  0.00  0.91  0.00
  GQ20                    1.00   0.03  0.00  0.00  0.97  0.00  0.00  0.00  0.91  0.00
  GQ21                    1.00   0.03  0.00  0.00  0.47  0.50  0.00  0.00  0.91  0.00
  GQ22                    1.00   0.03  0.00  0.00  0.09  0.88  0.00  0.00  0.91  0.00
  GQ23                    1.00   0.03  0.00  0.00  0.05  0.92  0.00  0.00  0.20  0.00
  GQ24                    1.00   0.03  0.00  0.00  0.89  0.08  0.00  0.00  0.86  0.00
  GQ25                    1.00   0.03  0.00  0.00  0.01  0.96  0.00  0.00  0.01  0.00
  GQ26                    1.00   0.03  0.00  0.00  0.03  0.94  0.00  0.00  0.83  0.00
  GQ27                    1.00   0.03  0.00  0.00  0.72  0.25  0.00  0.00  0.82  0.00
  GQ28                    1.00   0.03  0.00  0.00  0.97  0.00  0.00  0.00  0.85  0.00
  GQ29                    1.00   0.03  0.00  0.00  0.97  0.00  0.00  0.00  0.22  0.00
  GQ30                    1.00   0.03  0.00  0.00  0.94  0.03  0.00  0.00  0.21  0.00
  GQ31                    1.00   0.03  0.00  0.00  0.97  0.00  0.00  0.00  0.84  0.00
  GQ32                    1.00   0.03  0.00  0.00  0.04  0.93  0.00  0.00  0.00  0.00
  GQ33                    1.00   0.03  0.00  0.00  0.71  0.26  0.00  0.00  0.79  0.00
  GQ34                    1.00   0.03  0.00  0.00  0.97  0.00  0.00  0.00  0.91  0.00
  GQ35                    1.00   0.03  0.00  0.00  0.24  0.73  0.00  0.00  0.57  0.00
  GQ36                    1.00   0.03  0.00  0.00  0.19  0.78  0.00  0.00  0.75  0.00
  GQ37                    1.00   0.03  0.00  0.00  0.97  0.00  0.00  0.00  0.83  0.00
  GQ38                    1.00   0.03  0.01  0.00  0.96  0.00  0.00  0.00  0.85  0.00
  GQ39                    1.00   0.03  0.00  0.00  0.93  0.04  0.00  0.00  0.83  0.00
  GQ40                    1.00   0.03  0.00  0.00  0.10  0.87  0.00  0.00  0.90  0.00
  GQ41                    1.00   0.03  0.00  0.00  0.97  0.00  0.00  0.00  0.79  0.00
  GQ42                    1.00   0.03  0.00  0.00  0.97  0.00  0.00  0.00  0.73  0.00
  GQ43                    1.00   0.03  0.00  0.00  0.22  0.75  0.00  0.00  0.82  0.00
  GQ44                    1.00   0.03  0.00  0.00  0.97  0.00  0.00  0.00  0.66  0.00
  GQ45                    1.00   0.03  0.00  0.00  0.46  0.51  0.00  0.00  0.91  0.00
  GQ46                    1.00   0.03  0.00  0.00  0.49  0.48  0.00  0.00  0.55  0.00
  GQ47                    1.00   0.03  0.00  0.00  0.97  0.00  0.00  0.00  0.91  0.00
  GQ48                    1.00   0.03  0.00  0.00  0.97  0.00  0.00  0.00  0.91  0.00
  GQ49                    1.00   0.03  0.00  0.00  0.74  0.23  0.00  0.00  0.91  0.00
  GQ50                    1.00   0.03  0.00  0.00  0.97  0.00  0.00  0.00  0.91  0.00
  GQ51                    1.00   0.03  0.00  0.00  0.04  0.93  0.00  0.00  0.60  0.00
  GQ52                    1.00   0.03  0.00  0.00  0.97  0.00  0.00  0.00  0.70  0.00
  GQ53                    1.00   0.03  0.00  0.00  0.97  0.00  0.00  0.00  0.73  0.00
  GQ54                    1.00   0.03  0.00  0.00  0.97  0.00  0.00  0.00  0.91  0.00
  GQ55                    1.00   0.03  0.00  0.00  0.97  0.00  0.00  0.00  0.91  0.00
  GQ56                    1.00   0.03  0.00  0.00  0.24  0.73  0.00  0.00  0.54  0.00
  GQ57                    1.00   0.03  0.00  0.00  0.97  0.00  0.00  0.00  0.92  0.00
  GQ58                    1.00   0.03  0.00  0.00  0.80  0.17  0.00  0.00  0.91  0.00
  GQ59                    1.00   0.03  0.00  0.00  0.97  0.00  0.00  0.00  0.73  0.00
  GQ60                    1.00   0.03  0.00  0.00  0.97  0.00  0.00  0.00  0.24  0.00
  GQ61                    1.00   0.03  0.00  0.00  0.97  0.00  0.00  0.00  0.91  0.00
  GQ62                    1.00   0.03  0.00  0.00  0.97  0.00  0.00  0.00  0.92  0.00
  GQ63                    1.00   0.03  0.00  0.00  0.96  0.01  0.00  0.00  0.92  0.00
  GQ64                    1.00   0.03  0.00  0.00  0.41  0.56  0.00  0.00  0.91  0.00
  GQ65                    1.00   0.03  0.00  0.00  0.97  0.00  0.00  0.00  0.91  0.00
  GQ66                    1.00   0.03  0.00  0.00  0.97  0.00  0.00  0.00  0.91  0.00
  GQ67                    1.00   0.03  0.00  0.00  0.97  0.00  0.00  0.00  0.21  0.00
  GQ68                    1.00   0.03  0.00  0.00  0.97  0.00  0.00  0.00  0.91  0.00
  GQ69                    1.00   0.03  0.00  0.00  0.75  0.22  0.00  0.00  0.91  0.00
  GQ70                    1.00   0.04  0.00  0.00  0.03  0.93  0.00  0.00  0.05  0.00
  GQ71                    1.00   0.03  0.00  0.00  0.03  0.94  0.00  0.00  0.18  0.00
  GQ72                    1.00   0.03  0.00  0.00  0.01  0.96  0.00  0.00  0.25  0.00
  GQ73                    1.00   0.04  0.00  0.00  0.03  0.94  0.00  0.00  0.06  0.00
  GQ74                    1.00   0.03  0.00  0.00  0.88  0.09  0.00  0.00  0.91  0.00
  GQ75                    1.00   0.03  0.01  0.00  0.96  0.00  0.00  0.00  0.91  0.00
  GQ76                    1.00   0.03  0.00  0.00  0.00  0.97  0.00  0.00  0.19  0.00
  GQ77                    1.00   0.03  0.97  0.00  0.00  0.00  0.00  0.00  0.00  0.00
  GQ78                    1.00   0.03  0.00  0.00  0.89  0.08  0.00  0.00  0.79  0.00
  GQ79                    1.00   0.03  0.00  0.00  0.97  0.00  0.00  0.00  0.21  0.00
  GQ80                    1.00   0.03  0.00  0.00  0.97  0.00  0.00  0.00  0.71  0.00
  GQ81                    1.00   0.03  0.00  0.00  0.97  0.00  0.00  0.00  0.01  0.00
  GQ82                    1.00   0.03  0.00  0.00  0.77  0.20  0.00  0.00  0.91  0.00
  GQ83                    1.00   0.03  0.00  0.00  0.03  0.94  0.00  0.00  0.91  0.00
  GQ84                    1.00   0.03  0.00  0.00  0.07  0.90  0.00  0.00  0.92  0.00
  GQ85                    1.00   0.03  0.00  0.00  0.97  0.00  0.00  0.00  0.71  0.00
  GQ86                    1.00   0.03  0.00  0.00  0.97  0.00  0.00  0.00  0.91  0.00
  GQ87                    1.00   0.03  0.00  0.00  0.97  0.00  0.00  0.00  0.91  0.00
  GQ88                    1.00   0.03  0.00  0.00  0.97  0.00  0.00  0.00  0.91  0.00
  GQ89                    1.00   0.03  0.00  0.00  0.97  0.00  0.00  0.00  0.91  0.00
  GQ90                    1.00   0.03  0.00  0.00  0.94  0.03  0.00  0.00  0.91  0.00
  GQ91                    1.00   0.03  0.00  0.00  0.97  0.00  0.00  0.00  0.91  0.00
  GQ92                    1.00   0.03  0.00  0.00  0.88  0.09  0.00  0.00  0.03  0.00
  GQ93                    1.00   0.03  0.00  0.00  0.97  0.00  0.00  0.00  0.85  0.00
  GQ94                    1.00   0.03  0.00  0.00  0.53  0.44  0.00  0.00  0.03  0.00
  GQ95                    1.00   0.03  0.00  0.00  0.97  0.00  0.00  0.00  0.91  0.00
  GQ96                    1.00   0.03  0.00  0.00  0.97  0.00  0.00  0.00  0.54  0.00
  GQ97                    1.00   0.03  0.00  0.00  0.03  0.94  0.00  0.00  0.48  0.00
  GQ98                    1.00   0.03  0.00  0.00  0.97  0.00  0.00  0.00  0.79  0.00
  GQ99                    1.00   0.03  0.00  0.00  0.97  0.00  0.00  0.00  0.91  0.00
  GQ100                   1.00   0.03  0.00  0.00  0.03  0.94  0.00  0.00  0.00  0.00
  GQ101                   1.00   0.03  0.00  0.00  0.97  0.00  0.00  0.00  0.91  0.00
  GQ102                   1.00   0.03  0.00  0.00  0.77  0.20  0.00  0.00  0.91  0.00
  GQ103                   1.00   0.03  0.00  0.00  0.97  0.00  0.00  0.00  0.85  0.00
  GQ104                   1.00   0.03  0.00  0.00  0.64  0.33  0.00  0.00  0.91  0.00
  GQ105                   1.00   0.03  0.00  0.00  0.97  0.00  0.00  0.00  0.20  0.00
  GQ106                   1.00   0.03  0.00  0.00  0.97  0.00  0.00  0.00  0.91  0.00
  GQ107                   1.00   0.03  0.00  0.00  0.64  0.33  0.00  0.00  0.84  0.00
  GQ108                   1.00   0.03  0.00  0.00  0.97  0.00  0.00  0.00  0.22  0.00
  GQ109                   1.00   0.03  0.00  0.00  0.89  0.08  0.00  0.00  0.90  0.00
  GQ110                   1.00   0.03  0.00  0.00  0.97  0.00  0.00  0.00  0.91  0.00
  GQ111                   1.00   0.03  0.00  0.00  0.97  0.00  0.00  0.00  0.91  0.00
  GQ112                   1.00   0.03  0.00  0.00  0.03  0.94  0.00  0.00  0.90  0.00
  GQ113                   1.00   0.03  0.00  0.00  0.00  0.97  0.00  0.00  0.87  0.00
  GQ114                   1.00   0.03  0.00  0.00  0.97  0.00  0.00  0.00  0.21  0.00
  GQ115                   1.00   0.03  0.00  0.00  0.96  0.01  0.00  0.00  0.91  0.00
  GQ116                   1.00   0.03  0.00  0.00  0.97  0.00  0.00  0.00  0.91  0.00
  GQ117                   1.00   0.03  0.00  0.00  0.00  0.97  0.00  0.00  0.00  0.00
  GQ118                   1.00   0.03  0.00  0.00  0.48  0.49  0.00  0.00  0.91  0.00
  GQ119                   1.00   0.03  0.00  0.00  0.81  0.16  0.00  0.00  0.78  0.00
  GQ120                   1.00   0.03  0.10  0.00  0.87  0.00  0.00  0.00  0.00  0.00
  GQ121                   1.00   0.03  0.00  0.00  0.97  0.00  0.00  0.00  0.21  0.00
  GQ122                   1.00   0.03  0.02  0.00  0.90  0.06  0.00  0.00  0.91  0.00
  GQ123                   1.00   0.03  0.00  0.00  0.90  0.07  0.00  0.00  0.91  0.00
  GQ124                   1.00   0.03  0.02  0.00  0.95  0.00  0.00  0.00  0.91  0.00
  GQ125                   1.00   0.03  0.00  0.00  0.97  0.00  0.00  0.00  0.91  0.00
  GQ126                   1.00   0.03  0.00  0.00  0.97  0.00  0.00  0.00  0.91  0.00
  GQ127                   1.00   0.03  0.00  0.00  0.97  0.00  0.00  0.00  0.66  0.00
  GQ128                   1.00   0.03  0.00  0.00  0.25  0.72  0.00  0.00  0.81  0.00
  GQ129                   1.00   0.03  0.00  0.00  0.97  0.00  0.00  0.00  0.68  0.00
  GQ130                   1.00   0.03  0.00  0.00  0.90  0.07  0.00  0.00  0.68  0.00
  GQ131                   1.00   0.03  0.00  0.00  0.86  0.11  0.00  0.00  0.82  0.00
  
  
  *************************
  Conduit Surcharge Summary
  *************************
  
  ----------------------------------------------------------------------------
                                                           Hours        Hours 
                         --------- Hours Full --------   Above Full   Capacity
  Conduit                Both Ends  Upstream  Dnstream   Normal Flow   Limited
  ----------------------------------------------------------------------------
  GQ4                         2.41      2.41      8.38      0.01         0.01
  GQ5                         0.62      0.62      8.32      0.01         0.01
  GQ6                         0.01      0.01      0.62      0.01         0.01
  GQ7                         1.77      1.77      2.14      0.01         0.01
  GQ8                         0.01      0.01      1.77      0.01         0.01
  GQ9                         0.01      0.01      8.55      0.01         0.01
  GQ10                        2.58      2.58      8.60      0.08         0.01
  GQ12                        0.01      0.01      6.34      0.01         0.01
  GQ13                        0.01      0.01      2.13      0.01         0.01
  GQ18                        0.01      0.01      3.52      5.44         0.01
  GQ20                        0.01      0.01      0.33      0.01         0.01
  GQ21                        0.01      0.01      0.33      0.01         0.01
  GQ24                        0.01      0.01      8.46      0.01         0.01
  GQ27                        0.01      0.01      8.24      0.01         0.01
  GQ28                        0.01      0.01      8.34      0.01         0.01
  GQ29                        8.14      8.14      8.34      0.01         0.01
  GQ30                        8.24      8.24      8.40      0.01         0.01
  GQ31                        0.01      0.01      8.63      0.01         0.01
  GQ32                        0.01      0.88      0.01      0.76         0.01
  GQ33                        0.88      0.88      8.63      0.01         0.01
  GQ34                        0.01      0.01      0.88      0.01         0.01
  GQ35                        0.78      0.78      0.88      0.08         0.01
  GQ36                        0.78      0.78      0.82      0.92         0.77
  GQ37                        0.01      0.01      8.53      0.01         0.01
  GQ38                        0.01      0.01      8.53      0.01         0.01
  GQ39                        0.21      0.21      6.34      0.01         0.01
  GQ40                        0.01      0.01      0.21      0.01         0.01
  GQ41                        0.01      0.01      8.33      0.01         0.01
  GQ42                        1.83      1.83      8.37      0.01         0.01
  GQ43                        0.97      0.97      1.83      0.11         0.01
  GQ44                        2.44      2.44      3.52      0.01         0.01
  GQ45                        0.01      0.01      2.00      0.01         0.01
  GQ46                        2.00      2.00      2.44      0.01         0.01
  GQ47                        0.01      0.01      8.42      0.01         0.01
  GQ48                        0.01      0.01      8.46      0.01         0.01
  GQ49                        0.01      0.01      8.46      0.01         0.01
  GQ51                        0.01      0.01      0.01      0.38         0.01
  GQ52                        0.01      0.01      8.14      0.01         0.01
  GQ53                        1.46      1.46      8.38      0.01         0.01
  GQ54                        0.01      0.01      8.48      0.01         0.01
  GQ55                        0.01      0.01      8.48      0.01         0.01
  GQ56                        1.23      1.23      1.77      0.34         0.15
  GQ57                        0.01      0.01      1.23      0.01         0.01
  GQ58                        0.01      0.01      8.27      0.01         0.01
  GQ59                        1.83      1.83      8.27      0.01         0.01
  GQ60                        0.65      0.65      1.95      0.01         0.01
  GQ61                        0.01      0.01      7.90      0.01         0.01
  GQ62                        0.01      0.01      7.96      0.01         0.01
  GQ63                        0.01      0.01      8.00      0.01         0.01
  GQ66                        0.01      0.01      8.03      0.01         0.01
  GQ67                        7.91      7.91      7.96      0.01         0.01
  GQ68                        0.01      0.01      8.16      0.01         0.01
  GQ69                        0.01      0.01      8.40      0.01         0.01
  GQ75                        0.01      0.01      8.16      0.01         0.01
  GQ78                        0.93      0.93      8.51      0.01         0.01
  GQ79                        0.01      0.01      8.51      0.01         0.01
  GQ80                        0.93      0.93      5.96      0.01         0.01
  GQ81                        5.84      5.96      6.34      4.02         1.40
  GQ82                        0.01      0.01      6.34      0.01         0.01
  GQ84                        0.01      0.01      1.53      0.01         0.01
  GQ85                        0.01      0.01      8.68      0.01         0.01
  GQ86                        0.01      0.01      8.44      0.01         0.01
  GQ87                        0.01      0.01      8.44      0.01         0.01
  GQ88                        0.01      0.01      8.45      0.01         0.01
  GQ89                        0.01      0.01      8.22      0.01         0.01
  GQ90                        0.01      0.01      8.12      0.01         0.01
  GQ91                        0.01      0.01      8.30      0.01         0.01
  GQ92                        0.01      0.01      0.23      0.01         0.01
  GQ93                        0.23      0.23      0.91      0.01         0.01
  GQ94                        0.90      0.91      0.97      0.96         0.83
  GQ95                        0.01      0.01      8.53      0.01         0.01
  GQ98                        0.01      0.01      8.39      0.01         0.01
  GQ99                        0.01      0.01      7.99      0.01         0.01
  GQ101                       0.01      0.01      8.30      0.01         0.01
  GQ102                       0.01      0.01      8.36      0.01         0.01
  GQ103                       0.01      0.01      8.42      0.01         0.01
  GQ104                       0.01      0.01      8.42      0.01         0.01
  GQ105                       8.30      8.30      8.36      6.33         0.01
  GQ106                       0.01      0.01      8.34      0.01         0.01
  GQ107                       0.21      0.21      8.34      0.01         0.01
  GQ108                       4.47      4.47      8.30      0.01         0.01
  GQ109                       0.01      0.01      0.21      0.01         0.01
  GQ110                       0.01      0.01      8.16      0.01         0.01
  GQ111                       0.01      0.01      8.30      0.01         0.01
  GQ114                       0.01      0.01      8.48      0.01         0.01
  GQ116                       0.01      0.01      8.44      0.01         0.01
  GQ119                       1.13      1.13      8.45      0.01         0.01
  GQ120                       0.01      0.01      8.41      0.01         0.01
  GQ121                       8.33      8.33      8.45      0.01         0.01
  GQ122                       0.01      0.01      8.33      0.01         0.01
  GQ123                       0.01      0.01      8.35      0.01         0.01
  GQ125                       0.01      0.01      8.30      0.01         0.01
  GQ126                       0.01      0.01      8.30      0.01         0.01
  GQ127                       0.97      0.97      1.13      0.13         0.09
  GQ128                       0.01      0.01      0.84      0.01         0.01
  GQ129                       2.14      2.14      8.46      0.01         0.01
  GQ130                       2.30      2.30      8.74      0.01         0.01
  GQ131                       0.01      0.01      8.65      0.01         0.01
  

  Analysis begun on:  Sat Mar 25 16:20:52 2023
  Analysis ended on:  Sat Mar 25 16:20:55 2023
  Total elapsed time: 00:00:03