
  OWA STORM WATER MANAGEMENT MODEL - VERSION v5.1.14 (OWA 2022-07-31)
  --------------------------------------------------------------

  INP file created by DSDAConvertToSwmmTools 
  version 0.0.1 EcoVista 
  Title/Notes: 
  
  
  *********************************************************
  NOTE: The summary statistics displayed in this report are
  based on results found at every computational time step,  
  not just on results from each reporting time step.
  *********************************************************
  
  ****************
  Analysis Options
  ****************
  Flow Units ............... CMS
  Process Models:
    Rainfall/Runoff ........ YES
    RDII ................... NO
    Snowmelt ............... NO
    Groundwater ............ NO
    Flow Routing ........... YES
    Ponding Allowed ........ NO
    Water Quality .......... NO
  Infiltration Method ...... GREEN_AMPT
  Flow Routing Method ...... DYNWAVE
  Surcharge Method ......... EXTRAN
  Starting Date ............ 07/15/2020 00:00:00
  Ending Date .............. 07/15/2020 08:00:00
  Antecedent Dry Days ...... 0.0
  Report Time Step ......... 00:30:00
  Wet Time Step ............ 00:05:00
  Dry Time Step ............ 01:00:00
  Routing Time Step ........ 30.00 sec
  Variable Time Step ....... YES
  Maximum Trials ........... 8
  Number of Threads ........ 1
  Head Tolerance ........... 0.001500 m
  
  
  **************************        Volume         Depth
  Runoff Quantity Continuity     hectare-m            mm
  **************************     ---------       -------
  Total Precipitation ......       116.298        29.100
  Evaporation Loss .........         2.530         0.633
  Infiltration Loss ........        31.080         7.777
  Surface Runoff ...........        72.360        18.106
  Final Storage ............        10.810         2.705
  Continuity Error (%) .....        -0.415
  
  
  **************************        Volume        Volume
  Flow Routing Continuity        hectare-m      10^6 ltr
  **************************     ---------     ---------
  Dry Weather Inflow .......         0.000         0.000
  Wet Weather Inflow .......        71.895       718.956
  Groundwater Inflow .......         0.000         0.000
  RDII Inflow ..............         0.000         0.000
  External Inflow ..........         0.000         0.000
  External Outflow .........         6.386        63.857
  Flooding Loss ............        63.403       634.039
  Evaporation Loss .........         0.000         0.000
  Exfiltration Loss ........         0.000         0.000
  Initial Stored Volume ....         0.000         0.000
  Final Stored Volume ......         1.894        18.941
  Continuity Error (%) .....         0.295
  
  
  *************************
  Highest Continuity Errors
  *************************
  Node jd51 (7.56%)
  Node jd55 (6.15%)
  Node jd64 (6.14%)
  Node jd59 (6.11%)
  Node jd31 (5.68%)
  
  
  ***************************
  Time-Step Critical Elements
  ***************************
  Link GQ73 (91.65%)
  
  
  ********************************
  Highest Flow Instability Indexes
  ********************************
  Link GQ67 (18)
  Link GQ29 (12)
  Link GQ121 (8)
  Link GQ114 (7)
  Link GQ3 (6)
  
  
  *************************
  Routing Time Step Summary
  *************************
  Minimum Time Step           :     4.17 sec
  Average Time Step           :     8.91 sec
  Maximum Time Step           :    30.00 sec
  Percent in Steady State     :     0.00
  Average Iterations per Step :     4.40
  Percent Not Converging      :    17.47
  
  
  ***************************
  Subcatchment Runoff Summary
  ***************************
  
  ------------------------------------------------------------------------------------------------------------------------------
                            Total      Total      Total      Total     Imperv       Perv      Total       Total     Peak  Runoff
                           Precip      Runon       Evap      Infil     Runoff     Runoff     Runoff      Runoff   Runoff   Coeff
  Subcatchment                 mm         mm         mm         mm         mm         mm         mm    10^6 ltr      CMS
  ------------------------------------------------------------------------------------------------------------------------------
  1                         29.10       0.00       0.38      16.30      11.05       0.00      11.05        4.37     0.70   0.380
  2                         29.10       0.00       0.68       6.19      19.08       0.00      19.08       17.25     2.83   0.656
  3                         29.10       0.00       0.71       5.31      20.36       0.00      20.36        8.14     1.31   0.700
  4                         29.10       0.00       0.73       4.56      21.32       0.00      21.32        1.79     0.28   0.733
  5                         29.10       0.00       0.64       7.41      18.82       0.00      18.82        2.33     0.37   0.647
  6                         29.10       0.00       0.62       8.34      18.11       0.00      18.11        1.68     0.27   0.622
  7                         29.10       0.00       0.64       7.45      18.24       0.00      18.24        7.95     1.30   0.627
  8                         29.10       0.00       0.82       1.63      23.42       0.00      23.42        3.26     0.53   0.805
  9                         29.10       0.00       0.84       0.81      24.27       0.00      24.27        2.84     0.46   0.834
  10                        29.10       0.00       0.72       4.73      20.90       0.00      20.90        4.71     0.76   0.718
  11                        29.10       0.00       0.78       2.78      22.35       0.00      22.35       11.08     1.80   0.768
  12                        29.10       0.00       0.62       8.37      17.75       0.00      17.75        8.66     1.40   0.610
  13                        29.10       0.00       0.77       3.14      22.09       0.00      22.09        9.99     1.62   0.759
  14                        29.10       0.00       0.77       3.17      22.31       0.00      22.31        4.21     0.68   0.767
  15                        29.10       0.00       0.71       5.12      20.50       0.00      20.50        6.93     1.12   0.705
  16                        29.10       0.00       0.74       4.23      21.17       0.00      21.17        6.25     1.01   0.728
  17                        29.10       0.00       0.69       5.81      19.90       0.00      19.90        8.33     1.34   0.684
  18                        29.10       0.00       0.80       2.29      22.77       0.00      22.77        9.40     1.53   0.782
  19                        29.10       0.00       0.79       2.39      22.62       0.00      22.62        5.09     0.83   0.777
  20                        29.10       0.00       0.79       2.55      22.16       0.00      22.16       11.89     1.95   0.762
  21                        29.10       0.00       0.84       0.86      23.97       0.00      23.97        7.52     1.22   0.824
  22                        29.10       0.00       0.82       1.37      23.45       0.00      23.45        2.88     0.47   0.806
  23                        29.10       0.00       0.76       3.56      21.55       0.00      21.55       12.34     2.01   0.740
  24                        29.10       0.00       0.73       4.44      20.76       0.00      20.76        3.68     0.60   0.714
  25                        29.10       0.00       0.78       2.73      22.60       0.00      22.60        4.58     0.74   0.777
  26                        29.10       0.00       0.67       6.64      18.78       0.00      18.78        6.59     1.08   0.645
  27                        29.10       0.00       0.80       2.18      22.49       0.00      22.49        9.50     1.56   0.773
  28                        29.10       0.00       0.82       1.60      23.14       0.00      23.14       10.94     1.79   0.795
  29                        29.10       0.00       0.73       4.52      21.16       0.00      21.16        4.94     0.79   0.727
  30                        29.10       0.00       0.83       0.98      24.40       0.00      24.40        1.75     0.28   0.838
  31                        29.10       0.00       0.85       0.61      24.27       0.00      24.27        5.35     0.87   0.834
  32                        29.10       0.00       0.83       1.30      23.60       0.00      23.60       10.20     1.66   0.811
  33                        29.10       0.00       0.84       0.95      23.80       0.00      23.80        8.39     1.37   0.818
  34                        29.10       0.00       0.78       2.95      22.24       0.00      22.24        6.52     1.06   0.764
  35                        29.10       0.00       0.80       2.20      22.86       0.00      22.86        9.48     1.54   0.786
  36                        29.10       0.00       0.66       6.93      18.99       0.00      18.99        7.47     1.20   0.652
  37                        29.10       0.00       0.82       1.57      23.37       0.00      23.37        5.19     0.84   0.803
  38                        29.10       0.00       0.77       3.29      22.00       0.00      22.00        8.39     1.36   0.756
  39                        29.10       0.00       0.69       5.79      19.97       0.00      19.97        8.43     1.36   0.686
  40                        29.10       0.00       0.77       3.15      22.10       0.00      22.10        5.05     0.82   0.759
  41                        29.10       0.00       0.79       2.56      22.79       0.00      22.79        4.50     0.72   0.783
  42                        29.10       0.00       0.79       2.59      22.24       0.00      22.24        5.49     0.90   0.764
  43                        29.10       0.00       0.66       6.80      18.77       0.00      18.77       14.84     2.42   0.645
  44                        29.10       0.00       0.71       5.30      20.05       0.00      20.05        9.69     1.58   0.689
  45                        29.10       0.00       0.66       6.75      18.93       0.00      18.93       13.70     2.22   0.650
  46                        29.10       0.00       0.64       7.52      18.59       0.00      18.59        9.29     1.49   0.639
  47                        29.10       0.00       0.67       6.43      19.19       0.00      19.19       22.37     3.64   0.659
  48                        29.10       0.00       0.80       2.01      22.58       0.00      22.58       13.10     2.15   0.776
  49                        29.10       0.00       0.74       4.31      20.69       0.00      20.69       14.01     2.30   0.711
  50                        29.10       0.00       0.82       1.64      22.59       0.00      22.59        8.88     1.46   0.776
  51                        29.10       0.00       0.78       2.83      21.71       0.00      21.71        4.06     0.67   0.746
  52                        29.10       0.00       0.38      16.32      11.16       0.00      11.16       11.46     1.81   0.384
  53                        29.10       0.00       0.55      10.60      15.97       0.00      15.97       17.01     2.72   0.549
  54                        29.10       0.00       0.68       6.27      19.53       0.00      19.53        4.76     0.77   0.671
  55                        29.10       0.00       0.39      16.03      11.41       0.00      11.41        9.00     1.42   0.392
  56                        29.10       0.00       0.15      24.17       4.44       0.00       4.44        3.62     0.55   0.152
  57                        29.10       0.00       0.77       3.24      21.58       0.00      21.58       17.93     2.94   0.742
  58                        29.10       0.00       0.71       5.14      20.47       0.00      20.47        3.37     0.54   0.703
  59                        29.10       0.00       0.69       5.71      20.32       0.00      20.32        2.59     0.41   0.698
  60                        29.10       0.00       0.26      20.34       7.75       0.00       7.75        2.22     0.35   0.266
  61                        29.10       0.00       0.40      15.47      11.74       0.00      11.74        4.43     0.71   0.404
  62                        29.10       0.00       0.56      10.13      16.06       0.00      16.06       18.82     3.06   0.552
  63                        29.10       0.00       0.77       3.21      21.39       0.00      21.39       41.37     6.81   0.735
  64                        29.10       0.00       0.57       9.78      16.55       0.00      16.55        3.55     0.57   0.569
  65                        29.10       0.00       0.78       2.84      21.77       0.00      21.77       14.64     2.41   0.748
  66                        29.10       0.00       0.61       8.42      17.43       0.00      17.43        4.44     0.72   0.599
  67                        29.10       0.00       0.57       9.77      16.64       0.00      16.64        5.38     0.86   0.572
  68                        29.10       0.00       0.69       5.91      19.92       0.00      19.92        2.21     0.36   0.685
  69                        29.10       0.00       0.40      15.49      11.97       0.00      11.97        3.83     0.60   0.411
  70                        29.10       0.00       0.57       9.95      16.34       0.00      16.34       13.44     2.17   0.561
  71                        29.10       0.00       0.70       5.44      20.30       0.00      20.30        2.49     0.40   0.698
  72                        29.10       0.00       0.74       4.15      21.39       0.00      21.39        2.66     0.43   0.735
  73                        29.10       0.00       0.67       6.50      19.57       0.00      19.57        3.25     0.52   0.672
  74                        29.10       0.00       0.64       7.56      18.60       0.00      18.60        4.00     0.64   0.639
  75                        29.10       0.00       0.71       5.15      20.58       0.00      20.58        2.97     0.48   0.707
  76                        29.10       0.00       0.75       3.91      21.71       0.00      21.71        2.10     0.34   0.746
  77                        29.10       0.00       0.80       2.24      22.96       0.00      22.96        2.48     0.40   0.789
  78                        29.10       0.00       0.77       3.19      22.08       0.00      22.08        2.43     0.39   0.759
  79                        29.10       0.00       0.34      17.73       9.95       0.00       9.95       10.55     1.66   0.342
  80                        29.10       0.00       0.64       7.68      18.12       0.00      18.12       11.34     1.85   0.623
  81                        29.10       0.00       0.65       7.34      18.34       0.00      18.34        8.00     1.30   0.630
  82                        29.10       0.00       0.62       8.26      17.58       0.00      17.58       16.12     2.62   0.604
  83                        29.10       0.00       0.77       3.05      22.35       0.00      22.35        2.73     0.44   0.768
  84                        29.10       0.00       0.73       4.52      20.96       0.00      20.96        2.50     0.40   0.720
  85                        29.10       0.00       0.86       0.22      24.90       0.00      24.90        2.32     0.37   0.856
  86                        29.10       0.00       0.79       2.46      22.78       0.00      22.78        3.35     0.54   0.783
  87                        29.10       0.00       0.85       0.62      24.18       0.00      24.18        3.18     0.52   0.831
  88                        29.10       0.00       0.76       3.63      21.89       0.00      21.89        2.10     0.34   0.752
  89                        29.10       0.00       0.79       2.34      22.96       0.00      22.96        4.42     0.71   0.789
  90                        29.10       0.00       0.86       0.01      25.30       0.00      25.30        0.29     0.05   0.869
  91                        29.10       0.00       0.72       4.88      20.23       0.00      20.23        4.41     0.72   0.695
  92                        29.10       0.00       0.80       2.26      22.95       0.00      22.95        2.87     0.46   0.789
  93                        29.10       0.00       0.65       7.23      18.63       0.00      18.63        9.54     1.54   0.640
  94                        29.10       0.00       0.58       9.43      17.20       0.00      17.20        1.21     0.19   0.591
  95                        29.10       0.00       0.86       0.03      25.05       0.00      25.05        0.55     0.09   0.861
  96                        29.10       0.00       0.70       5.63      20.21       0.00      20.21        2.47     0.40   0.695
  97                        29.10       0.00       0.85       0.62      24.39       0.00      24.39        2.42     0.39   0.838
  98                        29.10       0.00       0.70       5.50      20.37       0.00      20.37        2.51     0.40   0.700
  99                        29.10       0.00       0.35      17.41      10.25       0.00      10.25        3.81     0.60   0.352
  100                       29.10       0.00       0.39      16.10      11.40       0.00      11.40        2.92     0.46   0.392
  101                       29.10       0.00       0.40      15.78      11.55       0.00      11.55        5.66     0.90   0.397
  102                       29.10       0.00       0.64       7.40      18.59       0.00      18.59        4.53     0.73   0.639
  103                       29.10       0.00       0.22      21.85       6.52       0.00       6.52        2.37     0.36   0.224
  104                       29.10       0.00       0.15      24.19       4.39       0.00       4.39        4.25     0.66   0.151
  105                       29.10       0.00       0.71       5.17      20.65       0.00      20.65        2.70     0.43   0.710
  106                       29.10       0.00       0.38      16.14      11.33       0.00      11.33        2.77     0.44   0.390
  
  
  ******************
  Node Depth Summary
  ******************
  
  ---------------------------------------------------------------------------------
                                 Average  Maximum  Maximum  Time of Max    Reported
                                   Depth    Depth      HGL   Occurrence   Max Depth
  Node                 Type       Meters   Meters   Meters  days hr:min      Meters
  ---------------------------------------------------------------------------------
  jd1                  JUNCTION     0.12     0.22   273.22     0  05:48        0.22
  jd2                  JUNCTION     0.82     3.00   270.00     0  05:22        3.00
  jd3                  JUNCTION     2.53     3.00   266.00     0  03:17        3.00
  jd4                  JUNCTION     1.71     3.00   270.00     0  05:11        3.00
  jd5                  JUNCTION     0.09     0.16   274.16     0  06:00        0.16
  jd6                  JUNCTION     0.11     0.20   275.20     0  06:00        0.20
  jd7                  JUNCTION     0.33     0.54   264.64     0  06:00        0.54
  jd8                  JUNCTION     1.96     3.00   267.00     0  05:06        3.00
  jd9                  JUNCTION     1.70     3.00   268.00     0  05:06        3.00
  jd10                 JUNCTION     2.56     3.00   273.00     0  03:08        3.00
  jd11                 JUNCTION     0.09     0.18   282.18     0  06:00        0.18
  jd12                 JUNCTION     2.60     3.00   272.00     0  03:00        3.00
  jd13                 JUNCTION     0.12     0.23   289.23     0  06:00        0.23
  jd14                 JUNCTION     0.71     3.00   283.00     0  05:22        3.00
  jd15                 JUNCTION     0.28     0.59   278.59     0  06:00        0.59
  jd16                 JUNCTION     0.30     0.62   274.62     0  06:00        0.62
  jd17                 JUNCTION     2.23     3.00   278.80     0  04:00        3.00
  jd18                 JUNCTION     0.74     3.00   282.00     0  05:27        3.00
  jd19                 JUNCTION     1.34     3.00   270.00     0  05:08        3.00
  jd20                 JUNCTION     0.20     0.35   273.35     0  06:00        0.35
  jd21                 JUNCTION     2.51     3.00   273.00     0  03:48        3.00
  jd22                 JUNCTION     1.72     3.00   275.00     0  05:08        3.00
  jd23                 JUNCTION     0.26     0.66   278.66     0  06:00        0.66
  jd24                 JUNCTION     0.14     0.26   285.26     0  06:00        0.26
  jd25                 JUNCTION     0.24     0.50   279.50     0  06:00        0.50
  jd26                 JUNCTION     0.76     3.00   288.00     0  05:21        3.00
  jd27                 JUNCTION     0.21     0.44   291.44     0  06:00        0.44
  jd28                 JUNCTION     2.63     3.00   290.00     0  02:51        3.00
  jd29                 JUNCTION     0.10     0.18   299.18     0  06:00        0.18
  jd30                 JUNCTION     0.13     0.25   290.25     0  06:00        0.25
  jd31                 JUNCTION     0.97     2.34   274.34     0  03:48        1.67
  jd32                 JUNCTION     2.62     3.00   275.00     0  02:56        3.00
  jd33                 JUNCTION     0.19     0.38   289.38     0  05:56        0.38
  jd34                 JUNCTION     0.24     3.00   297.00     0  05:59        1.16
  jd35                 JUNCTION     2.67     3.00   292.00     0  02:41        3.00
  jd36                 JUNCTION     0.92     3.00   302.00     0  05:17        3.00
  jd37                 JUNCTION     0.90     3.00   306.00     0  05:16        3.00
  jd38                 JUNCTION     0.40     0.92   297.92     0  06:00        0.92
  jd39                 JUNCTION     2.54     3.00   297.00     0  03:16        3.00
  jd40                 JUNCTION     1.27     3.00   302.00     0  05:14        3.00
  jd41                 JUNCTION     2.35     3.00   296.00     0  04:11        3.00
  jd42                 JUNCTION     0.19     0.38   305.38     0  06:00        0.38
  jd43                 JUNCTION     1.14     3.00   300.00     0  05:11        3.00
  jd44                 JUNCTION     1.20     3.00   286.00     0  05:15        3.00
  jd45                 JUNCTION     2.59     3.00   282.00     0  03:04        3.00
  jd46                 JUNCTION     0.28     0.61   275.61     0  06:00        0.60
  jd47                 JUNCTION     0.15     0.29   315.29     0  06:00        0.29
  jd48                 JUNCTION     0.11     0.20   325.20     0  06:00        0.20
  jd49                 JUNCTION     0.26     0.52   289.52     0  06:00        0.52
  jd50                 JUNCTION     2.65     3.00   278.00     0  02:48        3.00
  jd51                 JUNCTION     2.27     3.00   313.00     0  04:24        3.00
  jd52                 JUNCTION     0.71     3.00   326.00     0  05:22        2.01
  jd53                 JUNCTION     0.94     3.00   325.00     0  05:20        3.00
  jd54                 JUNCTION     0.28     0.54   326.54     0  06:00        0.54
  jd55                 JUNCTION     1.59     3.00   325.00     0  05:08        3.00
  jd56                 JUNCTION     0.19     0.39   327.39     0  06:00        0.39
  jd59                 JUNCTION     2.19     3.00   320.80     0  04:36        3.00
  jd60                 JUNCTION     2.60     3.00   319.00     0  02:58        3.00
  jd61                 JUNCTION     0.14     0.27   329.27     0  06:00        0.27
  jd62                 JUNCTION     0.06     0.12   335.12     0  06:00        0.12
  jd63                 JUNCTION     0.07     0.13   324.13     0  06:00        0.13
  jd64                 JUNCTION     2.03     3.00   321.00     0  04:36        2.89
  jd65                 JUNCTION     1.92     3.00   307.00     0  05:03        3.00
  jd66                 JUNCTION     2.55     3.00   304.00     0  03:12        3.00
  jd69                 JUNCTION     0.23     0.45   333.45     0  06:00        0.45
  jd79                 JUNCTION     2.59     3.00   274.00     0  02:54        3.00
  jd80                 JUNCTION     2.30     3.00   279.00     0  04:00        3.00
  jd81                 JUNCTION     0.15     0.28   288.28     0  06:00        0.28
  jd83                 JUNCTION     2.69     3.00   323.00     0  02:38        3.00
  jd84                 JUNCTION     0.62     3.00   326.00     0  05:21        2.76
  jd85                 JUNCTION     2.56     3.00   324.00     0  03:09        3.00
  jd87                 JUNCTION     2.58     3.00   322.00     0  03:03        3.00
  jd89                 JUNCTION     0.16     0.31   324.31     0  06:00        0.31
  jd90                 JUNCTION     0.14     0.27   328.27     0  06:00        0.27
  jd92                 JUNCTION     0.14     0.27   326.27     0  06:00        0.27
  jd93                 JUNCTION     0.95     3.00   327.00     0  05:19        3.00
  jd94                 JUNCTION     0.51     3.00   329.20     0  05:27        1.95
  jd95                 JUNCTION     0.57     3.00   330.00     0  05:28        2.21
  jd96                 JUNCTION     2.61     3.00   308.00     0  02:59        3.00
  jd97                 JUNCTION     0.58     3.00   330.20     0  05:28        2.30
  jd98                 JUNCTION     0.19     0.38   329.38     0  06:00        0.38
  jd99                 JUNCTION     2.54     3.00   327.00     0  03:13        3.00
  jd101                JUNCTION     0.11     0.20   321.20     0  06:00        0.20
  jd102                JUNCTION     0.24     0.50   324.50     0  06:00        0.50
  jd103                JUNCTION     0.11     0.21   318.21     0  06:00        0.21
  jd106                JUNCTION     2.38     3.00   287.00     0  03:52        3.00
  jd107                JUNCTION     0.21     0.40   332.40     0  06:00        0.40
  jd108                JUNCTION     1.11     1.48   327.48     0  05:59        1.48
  jd109                JUNCTION     0.16     0.32   343.32     0  06:00        0.32
  jd110                JUNCTION     2.56     3.00   327.00     0  03:11        3.00
  jd111                JUNCTION     0.07     0.13   344.13     0  06:00        0.13
  jd112                JUNCTION     0.09     0.17   334.17     0  06:00        0.17
  jd113                JUNCTION     0.10     0.19   348.19     0  06:00        0.19
  jd114                JUNCTION     2.59     3.00   317.00     0  03:02        3.00
  jd117                JUNCTION     1.30     2.76   318.76     0  05:59        2.76
  jd118                JUNCTION     0.09     0.17   330.17     0  06:00        0.17
  jd120                JUNCTION     0.16     0.33   327.33     0  06:00        0.33
  jd121                JUNCTION     0.16     0.32   320.32     0  06:00        0.32
  jd122                JUNCTION     2.53     3.00   276.00     0  03:19        3.00
  jd123                JUNCTION     2.52     3.00   276.20     0  03:19        3.00
  jd124                JUNCTION     2.71     3.00   271.00     0  02:31        3.00
  jd125                JUNCTION     1.51     3.00   278.00     0  05:11        3.00
  jd126                JUNCTION     2.68     3.00   275.00     0  02:39        3.00
  jd135                JUNCTION     0.14     0.27   289.27     0  06:00        0.27
  jd136                JUNCTION     0.26     0.52   341.52     0  06:00        0.52
  psk1                 OUTFALL      0.09     0.17   279.17     0  06:00        0.17
  psk2                 OUTFALL      0.13     0.25   270.25     0  06:00        0.25
  psk3                 OUTFALL      0.30     0.62   271.62     0  06:00        0.62
  psk4                 OUTFALL      0.00     0.00   280.00     0  00:00        0.00
  psk5                 OUTFALL      0.12     0.22   263.22     0  05:48        0.22
  psk6                 OUTFALL      0.08     0.16   259.16     0  06:00        0.16
  psk7                 OUTFALL      0.33     0.54   262.54     0  06:00        0.54
  psk8                 OUTFALL      0.00     0.00   317.00     0  00:00        0.00
  
  
  *******************
  Node Inflow Summary
  *******************
  
  -------------------------------------------------------------------------------------------------
                                  Maximum  Maximum                  Lateral       Total        Flow
                                  Lateral    Total  Time of Max      Inflow      Inflow     Balance
                                   Inflow   Inflow   Occurrence      Volume      Volume       Error
  Node                 Type           CMS      CMS  days hr:min    10^6 ltr    10^6 ltr     Percent
  -------------------------------------------------------------------------------------------------
  jd1                  JUNCTION     0.699    1.041     0  05:47        4.35        6.81       0.837
  jd2                  JUNCTION     1.079    1.443     0  06:00        6.55        8.92       1.166
  jd3                  JUNCTION     1.297    3.015     0  06:00         7.9        22.5       1.819
  jd4                  JUNCTION     1.559    1.735     0  06:00        9.44        10.6       2.661
  jd5                  JUNCTION     0.457    0.757     0  06:00        2.82        4.81       0.404
  jd6                  JUNCTION     0.528    0.528     0  06:00        3.24        3.24       0.524
  jd7                  JUNCTION     0.266    2.378     0  06:00        1.67        20.6       0.692
  jd8                  JUNCTION     0.370    1.316     0  06:00        2.31        13.7       1.817
  jd9                  JUNCTION     0.284    1.352     0  06:00        1.78        13.2       1.655
  jd10                 JUNCTION     0.758    0.959     0  06:00        4.68        5.93       1.741
  jd11                 JUNCTION     1.119    1.119     0  06:00        6.89        6.89       0.635
  jd12                 JUNCTION     0.842    1.848     0  06:00        5.15        11.2       1.250
  jd13                 JUNCTION     1.526    1.526     0  06:00        9.34        9.34       0.506
  jd14                 JUNCTION     1.787    2.019     0  06:00        10.9        12.3       0.824
  jd15                 JUNCTION     0.737    1.730     0  05:50        4.55        10.2       2.092
  jd16                 JUNCTION     0.792    3.274     0  06:00        4.91        19.1       0.897
  jd17                 JUNCTION     1.656    3.531     0  06:00        10.1        24.9       3.311
  jd18                 JUNCTION     1.314    1.917     0  06:00        8.09        11.7       1.381
  jd19                 JUNCTION     1.220    2.187     0  06:00        7.53        14.8       0.868
  jd20                 JUNCTION     1.013    1.259     0  06:00        6.21        9.98       1.024
  jd21                 JUNCTION     0.470    2.826     0  06:00        2.87        21.1       1.640
  jd22                 JUNCTION     0.827    1.619     0  05:35        5.05        10.8       0.773
  jd23                 JUNCTION     0.818    2.440     0  05:58        5.02        14.3       0.684
  jd24                 JUNCTION     1.345    1.345     0  06:00        8.27        8.27       0.623
  jd25                 JUNCTION     1.057    1.538     0  06:00        6.48        9.38       0.955
  jd26                 JUNCTION     1.539    2.438     0  06:00        9.42        15.4       0.893
  jd27                 JUNCTION     1.581    2.268     0  06:00        9.63        15.2       0.847
  jd28                 JUNCTION     2.151    2.780     0  06:00          13        17.7       0.776
  jd29                 JUNCTION     0.866    0.866     0  06:00        5.31        5.31       0.424
  jd30                 JUNCTION     0.899    2.749     0  06:00        5.46          16       0.478
  jd31                 JUNCTION     0.601    1.242     0  06:00        3.66        7.88       6.027
  jd32                 JUNCTION     1.222    4.192     0  06:00        7.47        29.5       0.864
  jd33                 JUNCTION     1.203    2.110     0  05:55        7.42        12.6       0.526
  jd34                 JUNCTION     1.489    1.489     0  06:00        9.23        9.23       0.430
  jd35                 JUNCTION     1.359    3.384     0  06:00        8.38        25.4       0.535
  jd36                 JUNCTION     2.297    3.278     0  06:00        13.9        21.6       1.019
  jd37                 JUNCTION     2.418    2.418     0  06:00        14.7        14.7       0.687
  jd38                 JUNCTION     2.225    3.161     0  06:00        13.6        21.3       1.382
  jd39                 JUNCTION     1.543    4.192     0  06:00        9.47        33.8       1.551
  jd40                 JUNCTION     2.624    4.814     0  06:00          16        34.7       1.431
  jd41                 JUNCTION     1.845    6.042     0  06:00        11.3        41.8       5.391
  jd42                 JUNCTION     2.408    2.641     0  06:00        14.5          16       0.961
  jd43                 JUNCTION     2.720    4.687     0  06:00        16.9        29.3       1.539
  jd44                 JUNCTION     3.635    6.246     0  06:00        22.2          47       1.494
  jd45                 JUNCTION     1.463    3.689     0  06:00        8.82        29.8       1.111
  jd46                 JUNCTION     0.669    0.669     0  06:00        4.03        4.03       2.986
  jd47                 JUNCTION     2.172    2.172     0  06:00        13.4        13.4       0.750
  jd48                 JUNCTION     0.602    0.602     0  06:00        3.81        3.81       0.719
  jd49                 JUNCTION     2.940    2.940     0  06:00        17.8        17.8       0.807
  jd50                 JUNCTION     3.056    6.305     0  06:00        18.7        47.4       0.934
  jd51                 JUNCTION     0.640    2.945     0  06:00        3.98        18.1       8.182
  jd52                 JUNCTION     1.303    4.509     0  05:22        7.94        24.2       1.454
  jd53                 JUNCTION     0.723    2.878     0  05:20        4.38        20.8       0.793
  jd54                 JUNCTION     0.391    1.941     0  06:00        2.41        11.9       0.997
  jd55                 JUNCTION     0.712    2.758     0  06:00        4.39        15.3       6.550
  jd56                 JUNCTION     0.432    1.265     0  05:59        2.68        7.83       0.811
  jd59                 JUNCTION     0.429    2.128     0  05:59        2.65        12.7       6.508
  jd60                 JUNCTION     0.768    1.629     0  06:00        4.73        10.1       1.301
  jd61                 JUNCTION     0.862    0.969     0  06:00        5.34        6.02       0.578
  jd62                 JUNCTION     0.347    0.347     0  06:00        2.21        2.21       0.299
  jd63                 JUNCTION     0.476    0.476     0  06:00        2.95        2.95       0.426
  jd64                 JUNCTION     0.401    0.990     0  06:00        2.47         6.1       6.539
  jd65                 JUNCTION     6.808    6.808     0  06:00        41.1        41.1       0.510
  jd66                 JUNCTION     0.900    2.611     0  06:00        5.62        16.3       1.992
  jd69                 JUNCTION     1.665    1.711     0  06:00        10.5        10.8       0.806
  jd79                 JUNCTION     1.619    2.535     0  06:00        9.93          17       1.054
  jd80                 JUNCTION     1.798    2.406     0  06:00          11        14.7       1.025
  jd81                 JUNCTION     1.366    1.366     0  06:00        8.33        8.33       0.228
  jd83                 JUNCTION     1.425    1.980     0  06:00        8.94          12       0.733
  jd84                 JUNCTION     1.811    1.811     0  06:00        11.4        11.4       0.630
  jd85                 JUNCTION     0.411    0.674     0  06:00        2.57        4.22       2.053
  jd87                 JUNCTION     0.337    0.813     0  06:00        2.09        5.03       1.505
  jd89                 JUNCTION     0.393    0.393     0  06:00        2.41        2.41       0.849
  jd90                 JUNCTION     0.401    0.401     0  06:00        2.47        2.47       0.649
  jd92                 JUNCTION     0.337    0.337     0  06:00        2.08        2.08       0.467
  jd93                 JUNCTION     0.724    1.567     0  06:00        4.41        9.51       1.085
  jd94                 JUNCTION     0.046    0.843     0  06:00       0.288        5.15       1.031
  jd95                 JUNCTION     0.088    0.797     0  05:59       0.543        4.92       1.209
  jd96                 JUNCTION     0.657    0.876     0  06:00        4.22        5.57       1.761
  jd97                 JUNCTION     0.709    0.709     0  06:00         4.4         4.4       0.343
  jd98                 JUNCTION     0.396    0.396     0  06:00        2.45        2.45       0.537
  jd99                 JUNCTION     0.190    0.458     0  06:00         1.2        3.47       1.663
  jd101                JUNCTION     0.519    1.035     0  06:00        3.23        6.37       0.584
  jd102                JUNCTION     0.516    0.516     0  06:00        3.16        3.16       0.739
  jd103                JUNCTION     0.356    0.356     0  06:00         2.2         2.2       0.254
  jd106                JUNCTION     0.279    1.650     0  06:00        1.74          10       4.031
  jd107                JUNCTION     0.402    1.321     0  06:00         2.5        8.17       0.944
  jd108                JUNCTION     0.437    0.437     0  06:00        2.75        2.77       2.426
  jd109                JUNCTION     0.730    0.730     0  06:00         4.5         4.5       0.240
  jd110                JUNCTION     0.555    0.826     0  06:00        3.59         5.3       2.941
  jd111                JUNCTION     0.460    0.460     0  06:00        2.91        2.91       0.500
  jd112                JUNCTION     0.542    1.505     0  06:00        3.33        9.41       0.398
  jd113                JUNCTION     0.364    0.364     0  06:00        2.35        2.35       0.163
  jd114                JUNCTION     0.440    4.067     0  05:59        2.71        30.6       1.054
  jd117                JUNCTION     0.405    1.325     0  06:00        2.49        8.33       1.939
  jd118                JUNCTION     0.371    0.371     0  06:00         2.3         2.3       0.134
  jd120                JUNCTION     0.463    0.463     0  06:00        2.85        2.85       0.417
  jd121                JUNCTION     0.571    0.571     0  06:00        3.53        3.53       0.507
  jd122                JUNCTION     1.358    4.924     0  05:57        8.34        33.8       1.701
  jd123                JUNCTION     1.396    3.727     0  06:00        8.61        31.6       2.285
  jd124                JUNCTION     2.011    3.084     0  06:00        12.3        25.5       0.246
  jd125                JUNCTION     1.951    3.626     0  06:00        11.8        30.8       1.319
  jd126                JUNCTION     2.829    3.691     0  06:00        17.1        23.4       0.445
  jd135                JUNCTION     0.723    0.723     0  06:00        4.47        4.47       0.380
  jd136                JUNCTION     0.599    0.964     0  06:00        3.78        6.13       0.982
  psk1                 OUTFALL      0.000    0.726     0  06:00           0        4.48       0.000
  psk2                 OUTFALL      0.000    2.084     0  06:00           0        11.9       0.000
  psk3                 OUTFALL      0.000    3.272     0  06:00           0        18.9       0.000
  psk4                 OUTFALL      0.000    0.000     0  00:00           0           0       0.000 ltr
  psk5                 OUTFALL      0.000    0.676     0  05:48           0        4.39       0.000
  psk6                 OUTFALL      0.000    0.580     0  06:00           0        3.67       0.000
  psk7                 OUTFALL      0.000    2.378     0  06:00           0        20.5       0.000
  psk8                 OUTFALL      0.000    0.000     0  00:00           0           0       0.000 ltr
  
  
  **********************
  Node Surcharge Summary
  **********************
  
  Surcharging occurs when water rises above the top of the highest conduit.
  ---------------------------------------------------------------------
                                               Max. Height   Min. Depth
                                   Hours       Above Crown    Below Rim
  Node                 Type      Surcharged         Meters       Meters
  ---------------------------------------------------------------------
  jd2                  JUNCTION        0.88          2.200        0.000
  jd3                  JUNCTION        4.72          2.200        0.000
  jd4                  JUNCTION        2.82          2.200        0.000
  jd8                  JUNCTION        4.19          2.200        0.000
  jd9                  JUNCTION        2.89          2.200        0.000
  jd10                 JUNCTION        4.87          2.400        0.000
  jd12                 JUNCTION        5.01          2.400        0.000
  jd14                 JUNCTION        0.75          2.400        0.000
  jd17                 JUNCTION        4.00          2.200        0.000
  jd18                 JUNCTION        0.71          2.000        0.000
  jd19                 JUNCTION        2.11          2.200        0.000
  jd21                 JUNCTION        4.80          2.200        0.000
  jd22                 JUNCTION        4.32          2.400        0.000
  jd26                 JUNCTION        0.80          2.400        0.000
  jd28                 JUNCTION        5.15          2.400        0.000
  jd31                 JUNCTION        4.20          1.544        0.656
  jd32                 JUNCTION        5.06          2.200        0.000
  jd34                 JUNCTION        0.04          2.400        0.000
  jd35                 JUNCTION        5.32          2.400        0.000
  jd36                 JUNCTION        1.06          2.400        0.000
  jd37                 JUNCTION        0.99          2.400        0.000
  jd39                 JUNCTION        4.73          2.000        0.000
  jd40                 JUNCTION        1.82          2.200        0.000
  jd41                 JUNCTION        3.82          1.000        0.000
  jd43                 JUNCTION        1.27          2.200        0.000
  jd44                 JUNCTION        1.48          2.000        0.000
  jd45                 JUNCTION        4.93          2.000        0.000
  jd50                 JUNCTION        5.19          2.200        0.000
  jd51                 JUNCTION        3.61          1.350        0.000
  jd52                 JUNCTION        0.88          1.500        0.000
  jd53                 JUNCTION        1.00          1.800        0.000
  jd55                 JUNCTION        1.88          1.500        0.000
  jd59                 JUNCTION        3.41          1.500        0.000
  jd60                 JUNCTION        5.03          2.400        0.000
  jd64                 JUNCTION        3.45          1.800        0.000
  jd65                 JUNCTION        2.94          2.400        0.000
  jd66                 JUNCTION        4.80          2.200        0.000
  jd79                 JUNCTION        5.10          2.400        0.000
  jd80                 JUNCTION        4.15          2.400        0.000
  jd83                 JUNCTION        5.37          2.400        0.000
  jd84                 JUNCTION        0.70          2.400        0.000
  jd85                 JUNCTION        4.85          2.400        0.000
  jd87                 JUNCTION        4.94          2.400        0.000
  jd93                 JUNCTION        1.09          2.200        0.000
  jd94                 JUNCTION        0.75          2.200        0.000
  jd95                 JUNCTION        0.63          2.200        0.000
  jd96                 JUNCTION        5.02          2.200        0.000
  jd97                 JUNCTION        0.61          2.200        0.000
  jd99                 JUNCTION        4.78          2.400        0.000
  jd106                JUNCTION        4.13          2.000        0.000
  jd108                JUNCTION        4.98          0.485        1.515
  jd110                JUNCTION        4.81          2.000        0.000
  jd114                JUNCTION        4.96          2.000        0.000
  jd117                JUNCTION        4.75          1.957        0.243
  jd122                JUNCTION        4.76          2.200        0.000
  jd123                JUNCTION        4.69          2.200        0.000
  jd124                JUNCTION        5.48          2.400        0.000
  jd125                JUNCTION        2.81          2.200        0.000
  jd126                JUNCTION        5.34          2.400        0.000
  
  
  *********************
  Node Flooding Summary
  *********************
  
  Flooding refers to all water that overflows a node, whether it ponds or not.
  --------------------------------------------------------------------------
                                                             Total   Maximum
                                 Maximum   Time of Max       Flood    Ponded
                        Hours       Rate    Occurrence      Volume     Depth
  Node                 Flooded       CMS   days hr:min    10^6 ltr    Meters
  --------------------------------------------------------------------------
  jd2                     0.69     0.295      0  05:22       0.410     0.000
  jd3                     4.72     3.015      0  06:00      22.127     0.000
  jd4                     1.92     1.225      0  06:00       4.067     0.000
  jd8                     1.43     0.229      0  05:45       0.814     0.000
  jd9                     1.33     0.479      0  05:06       1.549     0.000
  jd10                    4.86     0.959      0  06:00       5.829     0.000
  jd12                    5.00     1.848      0  06:00      11.070     0.000
  jd14                    0.56     0.235      0  05:22       0.227     0.000
  jd17                    2.99     2.702      0  06:00      11.876     0.000
  jd18                    0.61     0.628      0  05:27       0.774     0.000
  jd19                    1.11     1.120      0  06:00       3.280     0.000
  jd21                    4.20     2.826      0  06:00      20.480     0.000
  jd22                    1.17     0.795      0  05:35       2.436     0.000
  jd26                    0.73     0.542      0  06:00       1.155     0.000
  jd28                    5.14     2.780      0  06:00      17.581     0.000
  jd32                    5.06     4.192      0  06:00      29.227     0.000
  jd34                    0.01     0.046      0  05:59       0.000     0.000
  jd35                    5.32     3.384      0  06:00      25.222     0.000
  jd36                    0.92     1.157      0  06:00       2.828     0.000
  jd37                    0.89     0.942      0  06:00       2.195     0.000
  jd39                    4.73     4.191      0  06:00      33.304     0.000
  jd40                    1.34     2.252      0  06:00       7.668     0.000
  jd41                    3.82     6.041      0  06:00      39.706     0.000
  jd43                    1.18     2.856      0  06:00       8.851     0.000
  jd44                    1.05     2.345      0  06:00       6.400     0.000
  jd45                    4.93     3.689      0  06:00      29.460     0.000
  jd50                    5.19     6.305      0  06:00      47.018     0.000
  jd51                    3.60     2.945      0  06:00      16.753     0.000
  jd52                    0.01     2.316      0  05:22       0.054     0.000
  jd53                    0.71     0.808      0  05:20       0.926     0.000
  jd55                    0.85     2.757      0  06:00       6.805     0.000
  jd59                    3.40     2.128      0  05:59      11.915     0.000
  jd60                    5.02     1.629      0  06:00       9.966     0.000
  jd64                    0.01     0.057      0  04:36       0.000     0.000
  jd65                    2.94     5.715      0  06:00      25.067     0.000
  jd66                    4.79     2.611      0  06:00      15.994     0.000
  jd79                    4.31     2.289      0  06:00      13.108     0.000
  jd80                    3.53     2.248      0  06:00      11.251     0.000
  jd83                    5.36     1.980      0  06:00      11.940     0.000
  jd84                    0.01     0.186      0  05:21       0.002     0.000
  jd85                    4.84     0.674      0  06:00       4.141     0.000
  jd87                    4.94     0.813      0  06:00       4.958     0.000
  jd93                    0.63     0.376      0  06:00       0.714     0.000
  jd94                    0.01     0.270      0  05:27       0.002     0.000
  jd95                    0.01     0.145      0  05:28       0.001     0.000
  jd96                    5.01     0.876      0  06:00       5.476     0.000
  jd97                    0.01     0.097      0  05:28       0.003     0.000
  jd99                    4.77     0.458      0  06:00       3.419     0.000
  jd106                   4.13     1.650      0  06:00       9.613     0.000
  jd110                   4.81     0.826      0  06:00       5.152     0.000
  jd114                   4.76     4.067      0  05:59      30.172     0.000
  jd122                   4.68     4.924      0  05:57      33.178     0.000
  jd123                   4.45     3.413      0  06:00      25.652     0.000
  jd124                   5.48     3.084      0  06:00      25.412     0.000
  jd125                   1.24     1.240      0  06:00       3.646     0.000
  jd126                   5.34     3.691      0  06:00      23.297     0.000
  
  
  ***********************
  Outfall Loading Summary
  ***********************
  
  -----------------------------------------------------------
                         Flow       Avg       Max       Total
                         Freq      Flow      Flow      Volume
  Outfall Node           Pcnt       CMS       CMS    10^6 ltr
  -----------------------------------------------------------
  psk1                  94.28     0.283     0.726       4.475
  psk2                  93.14     0.782     2.084      11.918
  psk3                  94.81     1.214     3.272      18.949
  psk4                   0.00     0.000     0.000       0.000
  psk5                  93.14     0.281     0.676       4.387
  psk6                  93.26     0.235     0.580       3.670
  psk7                  92.83     1.248     2.378      20.458
  psk8                   0.00     0.000     0.000       0.000
  -----------------------------------------------------------
  System                70.18     4.044     0.000      63.857
  
  
  ********************
  Link Flow Summary
  ********************
  
  -----------------------------------------------------------------------------
                                 Maximum  Time of Max   Maximum    Max/    Max/
                                  |Flow|   Occurrence   |Veloc|    Full    Full
  Link                 Type          CMS  days hr:min     m/sec    Flow   Depth
  -----------------------------------------------------------------------------
  GQ1                  CONDUIT     0.356     0  05:34      1.96    0.93    0.68
  GQ2                  CONDUIT     1.387     0  06:00      2.78    0.66    0.61
  GQ3                  CONDUIT     0.726     0  06:00      6.50    0.03    0.11
  GQ4                  CONDUIT     0.510     0  05:43      1.80    1.00    1.00
  GQ5                  CONDUIT     1.208     0  05:41      2.40    1.00    1.00
  GQ6                  CONDUIT     0.365     0  05:48      1.20    0.16    0.64
  GQ7                  CONDUIT     1.675     0  05:31      3.51    1.00    1.00
  GQ8                  CONDUIT     0.779     0  06:00      1.75    0.75    0.83
  GQ9                  CONDUIT     2.156     0  06:00      4.85    0.76    0.83
  GQ10                 CONDUIT     1.126     0  05:03      4.02    1.03    1.00
  GQ11                 CONDUIT     0.233     0  06:00      1.90    0.25    0.49
  GQ12                 CONDUIT     0.279     0  06:00      1.34    0.30    0.69
  GQ13                 CONDUIT     0.176     0  06:00      0.56    0.08    0.60
  GQ14                 CONDUIT     0.091     0  06:00      1.10    0.13    0.22
  GQ15                 CONDUIT     0.209     0  06:00      4.38    0.84    0.64
  GQ16                 CONDUIT     1.850     0  06:00      4.08    0.89    0.59
  GQ17                 CONDUIT     0.436     0  06:00      1.92    0.14    0.46
  GQ18                 CONDUIT     1.087     0  06:00      2.50    4.90    0.84
  GQ19                 CONDUIT     0.588     0  06:00      2.32    0.07    0.36
  GQ20                 CONDUIT     0.129     0  06:00      0.50    0.07    0.59
  GQ21                 CONDUIT     0.475     0  06:00      1.53    0.15    0.63
  GQ22                 CONDUIT     0.481     0  06:00      1.80    0.15    0.38
  GQ23                 CONDUIT     1.007     0  06:00      2.30    0.49    0.58
  GQ24                 CONDUIT     1.658     0  06:00      3.44    0.82    0.91
  GQ25                 CONDUIT     0.908     0  05:54      4.02    1.02    0.81
  GQ26                 CONDUIT     0.617     0  05:56      2.72    0.72    0.81
  GQ27                 CONDUIT     0.832     0  05:31      3.00    0.83    1.00
  GQ28                 CONDUIT     0.291     0  06:00      0.75    0.31    0.72
  GQ29                 CONDUIT     1.242     0  06:00      2.47    0.58    1.00
  GQ30                 CONDUIT     0.824     0  05:36      2.91    1.00    1.00
  GQ31                 CONDUIT     0.592     0  06:00      2.09    0.79    1.00
  GQ32                 CONDUIT     0.688     0  06:00      2.94    1.10    0.87
  GQ33                 CONDUIT     1.434     0  05:44      5.07    1.00    1.00
  GQ34                 CONDUIT     0.441     0  06:00      1.78    0.69    0.82
  GQ35                 CONDUIT     0.706     0  05:17      2.50    1.31    1.00
  GQ36                 CONDUIT     0.956     0  05:16      3.38    1.18    1.00
  GQ37                 CONDUIT     0.435     0  06:00      1.67    0.62    0.87
  GQ38                 CONDUIT     0.194     0  06:00      0.91    0.28    0.71
  GQ39                 CONDUIT     0.782     0  05:35      2.76    1.00    1.00
  GQ40                 CONDUIT     0.599     0  06:00      2.47    0.75    0.87
  GQ41                 CONDUIT     1.290     0  06:00      1.66    0.60    0.96
  GQ42                 CONDUIT     1.359     0  05:47      2.70    1.00    1.00
  GQ43                 CONDUIT     2.308     0  05:17      4.70    1.03    1.00
  GQ44                 CONDUIT     0.946     0  05:34      1.88    1.00    1.00
  GQ45                 CONDUIT     0.968     0  06:00      2.51    0.39    0.72
  GQ46                 CONDUIT     1.068     0  05:58      2.12    1.00    1.00
  GQ47                 CONDUIT     0.202     0  06:00      1.04    0.19    0.65
  GQ48                 CONDUIT     0.200     0  06:00      1.03    0.19    0.65
  GQ49                 CONDUIT     0.806     0  06:00      3.88    0.30    0.69
  GQ50                 CONDUIT     0.232     0  06:00      1.12    0.30    0.69
  GQ51                 CONDUIT     0.995     0  05:45      3.53    1.52    0.99
  GQ52                 CONDUIT     0.650     0  06:04      1.41    0.87    0.88
  GQ53                 CONDUIT     2.225     0  05:41      2.83    1.00    1.00
  GQ54                 CONDUIT     0.493     0  06:00      2.24    0.42    0.73
  GQ55                 CONDUIT     0.368     0  06:00      1.83    0.25    0.67
  GQ56                 CONDUIT     2.001     0  05:13      4.17    1.09    1.00
  GQ57                 CONDUIT     0.712     0  06:00      1.79    0.46    0.74
  GQ58                 CONDUIT     1.483     0  06:00      3.72    0.46    0.74
  GQ59                 CONDUIT     1.203     0  05:52      2.39    1.00    1.00
  GQ60                 CONDUIT     2.271     0  05:22      1.45    0.55    1.00
  GQ61                 CONDUIT     0.317     0  06:00      0.34    0.04    0.57
  GQ62                 CONDUIT     0.660     0  06:00      0.51    0.07    0.59
  GQ63                 CONDUIT     1.511     0  06:00      0.87    0.04    0.57
  GQ64                 CONDUIT     0.107     0  06:00      1.44    0.08    0.32
  GQ65                 CONDUIT     0.046     0  06:00      0.37    0.08    0.47
  GQ66                 CONDUIT     0.188     0  06:00      0.62    0.06    0.58
  GQ67                 CONDUIT     0.990     0  05:59      0.88    0.69    1.00
  GQ68                 CONDUIT     0.997     0  06:00      1.72    0.32    0.69
  GQ69                 CONDUIT     1.711     0  06:00      4.06    0.61    0.78
  GQ70                 CONDUIT     0.580     0  06:00      8.38    0.08    0.20
  GQ71                 CONDUIT     0.676     0  05:48      6.03    0.16    0.27
  GQ72                 CONDUIT     2.378     0  06:00      5.50    0.57    0.54
  GQ73                 CONDUIT     2.084     0  06:00     13.66    0.13    0.25
  GQ74                 CONDUIT     0.386     0  06:00      1.48    0.07    0.40
  GQ75                 CONDUIT     0.469     0  06:00      0.91    0.14    0.62
  GQ76                 CONDUIT     3.272     0  06:00      6.38    0.71    0.62
  GQ77                 CONDUIT     0.000     0  00:00      0.00    0.00    0.30
  GQ78                 CONDUIT     0.916     0  05:39      3.24    1.00    1.00
  GQ79                 CONDUIT     0.246     0  06:00      1.08    0.53    0.79
  GQ80                 CONDUIT     0.608     0  05:41      2.15    1.00    1.00
  GQ81                 CONDUIT     0.305     0  04:29      1.08    1.94    1.00
  GQ82                 CONDUIT     0.657     0  06:00      2.94    0.45    0.74
  GQ83                 CONDUIT     0.709     0  06:00      3.18    0.45    0.74
  GQ84                 CONDUIT     1.304     0  05:20      4.71    1.03    1.00
  GQ85                 CONDUIT     0.555     0  06:00      1.96    0.96    1.00
  GQ86                 CONDUIT     0.193     0  06:00      1.10    0.08    0.60
  GQ87                 CONDUIT     0.069     0  06:00      0.38    0.10    0.61
  GQ88                 CONDUIT     0.476     0  06:00      2.16    0.42    0.73
  GQ89                 CONDUIT     0.393     0  06:00      1.71    0.52    0.76
  GQ90                 CONDUIT     0.401     0  06:00      1.84    0.40    0.72
  GQ91                 CONDUIT     0.337     0  06:00      1.54    0.41    0.72
  GQ92                 CONDUIT     0.797     0  06:00      1.83    1.15    1.00
  GQ93                 CONDUIT     0.843     0  06:00      1.68    0.72    1.00
  GQ94                 CONDUIT     1.199     0  06:03      2.39    1.42    1.00
  GQ95                 CONDUIT     0.219     0  06:00      0.72    0.06    0.58
  GQ96                 CONDUIT     0.709     0  05:59      1.42    1.21    1.00
  GQ97                 CONDUIT     0.396     0  06:00      2.09    0.71    0.63
  GQ98                 CONDUIT     0.268     0  06:00      1.08    0.38    0.82
  GQ99                 CONDUIT     0.718     0  06:00      0.69    0.04    0.57
  GQ100                CONDUIT     0.516     0  06:00      3.02    0.89    0.59
  GQ101                CONDUIT     0.356     0  06:00      1.75    0.27    0.68
  GQ102                CONDUIT     1.493     0  05:56      3.76    0.45    0.74
  GQ103                CONDUIT     0.530     0  06:00      1.96    0.81    0.91
  GQ104                CONDUIT     1.231     0  06:00      4.72    0.89    0.87
  GQ105                CONDUIT     0.315     0  05:53      0.63    1.00    1.00
  GQ106                CONDUIT     0.388     0  06:00      1.79    0.39    0.72
  GQ107                CONDUIT     1.114     0  05:32      3.94    1.00    1.00
  GQ108                CONDUIT     0.829     0  06:00      1.65    1.00    1.00
  GQ109                CONDUIT     0.300     0  06:00      1.48    0.41    0.72
  GQ110                CONDUIT     0.480     0  06:00      1.00    0.07    0.59
  GQ111                CONDUIT     0.422     0  06:00      1.93    0.38    0.72
  GQ112                CONDUIT     1.320     0  06:00      3.21    0.24    0.39
  GQ113                CONDUIT     0.730     0  06:00      4.16    0.55    0.60
  GQ114                CONDUIT     0.437     0  05:59      0.75    0.18    0.69
  GQ115                CONDUIT     0.189     0  06:00      1.03    0.03    0.22
  GQ116                CONDUIT     0.271     0  06:00      0.59    0.04    0.57
  GQ117                CONDUIT     0.963     0  06:00      4.64    0.60    0.43
  GQ118                CONDUIT     0.364     0  06:00      2.16    0.12    0.44
  GQ119                CONDUIT     2.302     0  05:40      4.58    1.00    1.00
  GQ120                CONDUIT     0.000     0  00:00      0.00    0.00    0.50
  GQ121                CONDUIT     1.325     0  05:59      2.64    0.94    1.00
  GQ122                CONDUIT     0.549     0  06:00      1.72    0.10    0.61
  GQ123                CONDUIT     0.371     0  06:00      1.93    0.18    0.64
  GQ124                CONDUIT     0.230     0  06:00      1.09    0.10    0.45
  GQ125                CONDUIT     0.463     0  06:00      1.97    0.52    0.78
  GQ126                CONDUIT     0.571     0  06:00      2.47    0.54    0.76
  GQ127                CONDUIT     0.837     0  05:17      1.73    1.07    1.00
  GQ128                CONDUIT     1.940     0  06:00      2.68    0.42    0.73
  GQ129                CONDUIT     1.313     0  05:27      2.61    1.00    1.00
  GQ130                CONDUIT     1.073     0  06:06      3.79    1.00    1.00
  GQ131                CONDUIT     0.862     0  05:40      3.05    1.00    1.00
  
  
  ***************************
  Flow Classification Summary
  ***************************
  
  -------------------------------------------------------------------------------------
                      Adjusted    ---------- Fraction of Time in Flow Class ---------- 
                       /Actual         Up    Down  Sub   Sup   Up    Down  Norm  Inlet 
  Conduit               Length    Dry  Dry   Dry   Crit  Crit  Crit  Crit  Ltd   Ctrl  
  -------------------------------------------------------------------------------------
  GQ1                     1.00   0.04  0.00  0.00  0.19  0.77  0.00  0.00  0.00  0.00
  GQ2                     1.00   0.04  0.00  0.00  0.08  0.89  0.00  0.00  0.84  0.00
  GQ3                     1.00   0.06  0.00  0.00  0.02  0.92  0.00  0.00  0.04  0.00
  GQ4                     1.00   0.04  0.00  0.00  0.96  0.00  0.00  0.00  0.49  0.00
  GQ5                     1.00   0.04  0.00  0.00  0.96  0.00  0.00  0.00  0.70  0.00
  GQ6                     1.00   0.04  0.01  0.00  0.96  0.00  0.00  0.00  0.87  0.00
  GQ7                     1.00   0.04  0.00  0.00  0.47  0.49  0.00  0.00  0.13  0.00
  GQ8                     1.00   0.04  0.00  0.00  0.96  0.00  0.00  0.00  0.82  0.00
  GQ9                     1.00   0.04  0.00  0.00  0.61  0.36  0.00  0.00  0.87  0.00
  GQ10                    1.00   0.04  0.00  0.00  0.77  0.19  0.00  0.00  0.50  0.00
  GQ11                    1.00   0.04  0.00  0.00  0.11  0.85  0.00  0.00  0.83  0.00
  GQ12                    1.00   0.04  0.00  0.00  0.95  0.01  0.00  0.00  0.87  0.00
  GQ13                    1.00   0.04  0.01  0.00  0.95  0.00  0.00  0.00  0.87  0.00
  GQ14                    1.00   0.04  0.00  0.00  0.95  0.01  0.00  0.00  0.06  0.00
  GQ15                    1.00   0.04  0.00  0.00  0.04  0.92  0.00  0.00  0.02  0.00
  GQ16                    1.00   0.04  0.00  0.00  0.04  0.92  0.00  0.00  0.00  0.00
  GQ17                    1.00   0.04  0.00  0.00  0.65  0.31  0.00  0.00  0.86  0.00
  GQ18                    1.00   0.04  0.00  0.00  0.83  0.13  0.00  0.00  0.18  0.00
  GQ19                    1.00   0.04  0.00  0.00  0.55  0.41  0.00  0.00  0.86  0.00
  GQ20                    1.00   0.04  0.00  0.00  0.96  0.00  0.00  0.00  0.87  0.00
  GQ21                    1.00   0.04  0.00  0.00  0.53  0.44  0.00  0.00  0.87  0.00
  GQ22                    1.00   0.04  0.00  0.00  0.04  0.92  0.00  0.00  0.87  0.00
  GQ23                    1.00   0.04  0.00  0.00  0.10  0.86  0.00  0.00  0.23  0.00
  GQ24                    1.00   0.04  0.00  0.00  0.74  0.23  0.00  0.00  0.76  0.00
  GQ25                    1.00   0.04  0.00  0.00  0.01  0.95  0.00  0.00  0.01  0.00
  GQ26                    1.00   0.04  0.00  0.00  0.04  0.92  0.00  0.00  0.81  0.00
  GQ27                    1.00   0.04  0.00  0.00  0.77  0.19  0.00  0.00  0.72  0.00
  GQ28                    1.00   0.04  0.00  0.00  0.96  0.00  0.00  0.00  0.74  0.00
  GQ29                    1.00   0.04  0.00  0.00  0.96  0.00  0.00  0.00  0.27  0.00
  GQ30                    1.00   0.04  0.00  0.00  0.94  0.02  0.00  0.00  0.24  0.00
  GQ31                    1.00   0.04  0.00  0.00  0.96  0.00  0.00  0.00  0.74  0.00
  GQ32                    1.00   0.04  0.00  0.00  0.04  0.92  0.00  0.00  0.02  0.00
  GQ33                    1.00   0.04  0.00  0.00  0.62  0.34  0.00  0.00  0.68  0.00
  GQ34                    1.00   0.04  0.00  0.00  0.96  0.00  0.00  0.00  0.80  0.00
  GQ35                    1.00   0.04  0.00  0.00  0.35  0.61  0.00  0.00  0.30  0.00
  GQ36                    1.00   0.04  0.00  0.00  0.30  0.66  0.00  0.00  0.63  0.00
  GQ37                    1.00   0.04  0.00  0.00  0.96  0.00  0.00  0.00  0.73  0.00
  GQ38                    1.00   0.04  0.01  0.00  0.95  0.00  0.00  0.00  0.75  0.00
  GQ39                    1.00   0.04  0.00  0.00  0.93  0.03  0.00  0.00  0.73  0.00
  GQ40                    1.00   0.04  0.00  0.00  0.25  0.71  0.00  0.00  0.78  0.00
  GQ41                    1.00   0.04  0.00  0.00  0.96  0.00  0.00  0.00  0.68  0.00
  GQ42                    1.00   0.04  0.00  0.00  0.96  0.00  0.00  0.00  0.51  0.00
  GQ43                    1.00   0.04  0.00  0.00  0.34  0.63  0.00  0.00  0.71  0.00
  GQ44                    1.00   0.04  0.00  0.00  0.96  0.00  0.00  0.00  0.42  0.00
  GQ45                    1.00   0.04  0.00  0.00  0.52  0.44  0.00  0.00  0.87  0.00
  GQ46                    1.00   0.04  0.00  0.00  0.68  0.28  0.00  0.00  0.37  0.00
  GQ47                    1.00   0.04  0.00  0.00  0.96  0.00  0.00  0.00  0.87  0.00
  GQ48                    1.00   0.04  0.00  0.00  0.96  0.00  0.00  0.00  0.87  0.00
  GQ49                    1.00   0.04  0.00  0.00  0.64  0.32  0.00  0.00  0.87  0.00
  GQ50                    1.00   0.04  0.00  0.00  0.96  0.00  0.00  0.00  0.87  0.00
  GQ51                    1.00   0.04  0.00  0.00  0.20  0.76  0.00  0.00  0.52  0.00
  GQ52                    1.00   0.04  0.00  0.00  0.96  0.00  0.00  0.00  0.60  0.00
  GQ53                    1.00   0.04  0.00  0.00  0.96  0.00  0.00  0.00  0.59  0.00
  GQ54                    1.00   0.04  0.00  0.00  0.78  0.19  0.00  0.00  0.87  0.00
  GQ55                    1.00   0.04  0.00  0.00  0.96  0.00  0.00  0.00  0.87  0.00
  GQ56                    1.00   0.04  0.00  0.00  0.34  0.62  0.00  0.00  0.41  0.00
  GQ57                    1.00   0.04  0.00  0.00  0.96  0.00  0.00  0.00  0.87  0.00
  GQ58                    1.00   0.04  0.00  0.00  0.68  0.28  0.00  0.00  0.87  0.00
  GQ59                    1.00   0.04  0.00  0.00  0.96  0.00  0.00  0.00  0.57  0.00
  GQ60                    1.00   0.04  0.00  0.00  0.96  0.00  0.00  0.00  0.36  0.00
  GQ61                    1.00   0.04  0.00  0.00  0.96  0.00  0.00  0.00  0.87  0.00
  GQ62                    1.00   0.04  0.00  0.00  0.96  0.00  0.00  0.00  0.87  0.00
  GQ63                    1.00   0.04  0.00  0.00  0.94  0.02  0.00  0.00  0.87  0.00
  GQ64                    1.00   0.04  0.00  0.00  0.04  0.92  0.00  0.00  0.87  0.00
  GQ65                    1.00   0.04  0.00  0.00  0.96  0.00  0.00  0.00  0.87  0.00
  GQ66                    1.00   0.04  0.00  0.00  0.95  0.01  0.00  0.00  0.87  0.00
  GQ67                    1.00   0.04  0.00  0.00  0.96  0.00  0.00  0.00  0.22  0.00
  GQ68                    1.00   0.04  0.00  0.00  0.96  0.00  0.00  0.00  0.87  0.00
  GQ69                    1.00   0.04  0.00  0.00  0.67  0.29  0.00  0.00  0.87  0.00
  GQ70                    1.00   0.05  0.00  0.00  0.03  0.92  0.00  0.00  0.01  0.00
  GQ71                    1.00   0.04  0.00  0.00  0.03  0.92  0.00  0.00  0.06  0.00
  GQ72                    1.00   0.04  0.00  0.00  0.01  0.95  0.00  0.00  0.23  0.00
  GQ73                    1.00   0.05  0.00  0.00  0.03  0.92  0.00  0.00  0.02  0.00
  GQ74                    1.00   0.04  0.00  0.00  0.88  0.08  0.00  0.00  0.87  0.00
  GQ75                    1.00   0.04  0.01  0.00  0.95  0.00  0.00  0.00  0.87  0.00
  GQ76                    1.00   0.04  0.00  0.00  0.00  0.96  0.00  0.00  0.23  0.00
  GQ77                    1.00   0.04  0.96  0.00  0.00  0.00  0.00  0.00  0.00  0.00
  GQ78                    1.00   0.04  0.00  0.00  0.89  0.07  0.00  0.00  0.68  0.00
  GQ79                    1.00   0.04  0.00  0.00  0.96  0.00  0.00  0.00  0.23  0.00
  GQ80                    1.00   0.04  0.00  0.00  0.96  0.00  0.00  0.00  0.50  0.00
  GQ81                    1.00   0.04  0.00  0.00  0.96  0.00  0.00  0.00  0.01  0.00
  GQ82                    1.00   0.04  0.00  0.00  0.68  0.28  0.00  0.00  0.87  0.00
  GQ83                    1.00   0.04  0.00  0.00  0.03  0.93  0.00  0.00  0.86  0.00
  GQ84                    1.00   0.04  0.00  0.00  0.21  0.75  0.00  0.00  0.77  0.00
  GQ85                    1.00   0.04  0.00  0.00  0.96  0.00  0.00  0.00  0.50  0.00
  GQ86                    1.00   0.04  0.00  0.00  0.96  0.01  0.00  0.00  0.87  0.00
  GQ87                    1.00   0.04  0.00  0.00  0.96  0.00  0.00  0.00  0.87  0.00
  GQ88                    1.00   0.04  0.00  0.00  0.79  0.17  0.00  0.00  0.87  0.00
  GQ89                    1.00   0.04  0.00  0.00  0.95  0.01  0.00  0.00  0.87  0.00
  GQ90                    1.00   0.04  0.00  0.00  0.94  0.02  0.00  0.00  0.87  0.00
  GQ91                    1.00   0.04  0.00  0.00  0.95  0.01  0.00  0.00  0.84  0.00
  GQ92                    1.00   0.04  0.00  0.00  0.91  0.05  0.00  0.00  0.02  0.00
  GQ93                    1.00   0.04  0.00  0.00  0.96  0.00  0.00  0.00  0.74  0.00
  GQ94                    1.00   0.04  0.00  0.00  0.55  0.41  0.00  0.00  0.02  0.00
  GQ95                    1.00   0.04  0.00  0.00  0.96  0.00  0.00  0.00  0.87  0.00
  GQ96                    1.00   0.04  0.00  0.00  0.96  0.00  0.00  0.00  0.27  0.00
  GQ97                    1.00   0.04  0.00  0.00  0.04  0.92  0.00  0.00  0.23  0.00
  GQ98                    1.00   0.04  0.00  0.00  0.96  0.00  0.00  0.00  0.69  0.00
  GQ99                    1.00   0.04  0.00  0.00  0.95  0.01  0.00  0.00  0.87  0.00
  GQ100                   1.00   0.04  0.00  0.00  0.04  0.92  0.00  0.00  0.00  0.00
  GQ101                   1.00   0.04  0.00  0.00  0.95  0.01  0.00  0.00  0.87  0.00
  GQ102                   1.00   0.04  0.00  0.00  0.68  0.28  0.00  0.00  0.87  0.00
  GQ103                   1.00   0.04  0.00  0.00  0.96  0.00  0.00  0.00  0.75  0.00
  GQ104                   1.00   0.04  0.00  0.00  0.52  0.45  0.00  0.00  0.87  0.00
  GQ105                   1.00   0.04  0.00  0.00  0.96  0.00  0.00  0.00  0.22  0.00
  GQ106                   1.00   0.04  0.00  0.00  0.95  0.01  0.00  0.00  0.87  0.00
  GQ107                   1.00   0.04  0.00  0.00  0.69  0.27  0.00  0.00  0.74  0.00
  GQ108                   1.00   0.04  0.00  0.00  0.96  0.00  0.00  0.00  0.29  0.00
  GQ109                   1.00   0.04  0.00  0.00  0.90  0.06  0.00  0.00  0.87  0.00
  GQ110                   1.00   0.04  0.00  0.00  0.95  0.01  0.00  0.00  0.87  0.00
  GQ111                   1.00   0.04  0.00  0.00  0.95  0.01  0.00  0.00  0.79  0.00
  GQ112                   1.00   0.04  0.00  0.00  0.04  0.92  0.00  0.00  0.85  0.00
  GQ113                   1.00   0.04  0.00  0.00  0.00  0.96  0.00  0.00  0.84  0.00
  GQ114                   1.00   0.04  0.00  0.00  0.96  0.00  0.00  0.00  0.25  0.00
  GQ115                   1.00   0.04  0.00  0.00  0.95  0.01  0.00  0.00  0.87  0.00
  GQ116                   1.00   0.04  0.00  0.00  0.96  0.00  0.00  0.00  0.87  0.00
  GQ117                   1.00   0.04  0.00  0.00  0.01  0.96  0.00  0.00  0.00  0.00
  GQ118                   1.00   0.04  0.00  0.00  0.12  0.84  0.00  0.00  0.87  0.00
  GQ119                   1.00   0.04  0.00  0.00  0.67  0.29  0.00  0.00  0.68  0.00
  GQ120                   1.00   0.04  0.12  0.00  0.84  0.00  0.00  0.00  0.00  0.00
  GQ121                   1.00   0.04  0.00  0.00  0.95  0.01  0.00  0.00  0.25  0.00
  GQ122                   1.00   0.04  0.02  0.00  0.88  0.07  0.00  0.00  0.87  0.00
  GQ123                   1.00   0.04  0.00  0.00  0.71  0.25  0.00  0.00  0.87  0.00
  GQ124                   1.00   0.04  0.02  0.00  0.93  0.01  0.00  0.00  0.87  0.00
  GQ125                   1.00   0.04  0.00  0.00  0.95  0.01  0.00  0.00  0.79  0.00
  GQ126                   1.00   0.04  0.00  0.00  0.75  0.21  0.00  0.00  0.87  0.00
  GQ127                   1.00   0.04  0.00  0.00  0.96  0.00  0.00  0.00  0.66  0.00
  GQ128                   1.00   0.04  0.00  0.00  0.36  0.60  0.00  0.00  0.81  0.00
  GQ129                   1.00   0.04  0.00  0.00  0.96  0.00  0.00  0.00  0.50  0.00
  GQ130                   1.00   0.04  0.00  0.00  0.87  0.10  0.00  0.00  0.50  0.00
  GQ131                   1.00   0.04  0.00  0.00  0.89  0.07  0.00  0.00  0.72  0.00
  
  
  *************************
  Conduit Surcharge Summary
  *************************
  
  ----------------------------------------------------------------------------
                                                           Hours        Hours 
                         --------- Hours Full --------   Above Full   Capacity
  Conduit                Both Ends  Upstream  Dnstream   Normal Flow   Limited
  ----------------------------------------------------------------------------
  GQ4                         2.85      2.85      4.89      0.01         0.01
  GQ5                         0.88      0.88      4.72      0.01         0.01
  GQ6                         0.01      0.01      0.88      0.01         0.01
  GQ7                         1.75      1.75      2.81      0.01         0.01
  GQ8                         0.01      0.01      1.75      0.01         0.01
  GQ9                         0.01      0.01      5.19      0.01         0.01
  GQ10                        2.94      2.94      5.28      0.03         0.01
  GQ12                        0.01      0.01      4.19      0.01         0.01
  GQ13                        0.01      0.01      2.82      0.01         0.01
  GQ18                        0.01      0.01      4.19      4.37         0.01
  GQ20                        0.01      0.01      0.71      0.01         0.01
  GQ21                        0.01      0.01      0.71      0.01         0.01
  GQ24                        0.01      0.01      5.06      0.01         0.01
  GQ25                        0.01      0.04      0.01      0.34         0.01
  GQ26                        0.01      0.01      0.43      0.01         0.01
  GQ27                        0.43      0.43      4.32      0.01         0.01
  GQ28                        0.01      0.01      4.80      0.01         0.01
  GQ29                        4.20      4.20      4.80      0.01         0.01
  GQ30                        4.32      4.32      4.94      0.01         0.01
  GQ31                        0.04      0.04      5.32      0.01         0.01
  GQ32                        0.01      1.06      0.01      0.95         0.01
  GQ33                        1.06      1.06      5.32      0.01         0.01
  GQ34                        0.01      0.01      1.06      0.01         0.01
  GQ35                        0.97      0.99      1.06      0.12         0.01
  GQ36                        0.98      0.99      1.00      1.08         0.97
  GQ37                        0.01      0.01      5.15      0.01         0.01
  GQ38                        0.01      0.01      5.15      0.01         0.01
  GQ39                        0.80      0.80      4.19      0.01         0.01
  GQ40                        0.01      0.01      0.80      0.01         0.01
  GQ41                        0.01      0.01      4.73      0.01         0.01
  GQ42                        1.82      1.82      4.86      0.01         0.01
  GQ43                        1.16      1.16      1.82      0.06         0.01
  GQ44                        2.89      2.89      4.19      0.01         0.01
  GQ45                        0.01      0.01      2.11      0.01         0.01
  GQ46                        2.11      2.11      2.89      0.01         0.01
  GQ47                        0.01      0.01      4.87      0.01         0.01
  GQ48                        0.01      0.01      5.01      0.01         0.01
  GQ49                        0.01      0.01      5.01      0.01         0.01
  GQ50                        0.01      0.01      0.75      0.01         0.01
  GQ51                        0.01      0.75      0.01      0.87         0.01
  GQ52                        0.01      0.01      4.20      0.01         0.01
  GQ53                        1.48      1.48      4.93      0.01         0.01
  GQ54                        0.01      0.01      5.03      0.01         0.01
  GQ55                        0.01      0.01      5.03      0.01         0.01
  GQ56                        1.24      1.27      1.75      0.29         0.11
  GQ57                        0.01      0.01      1.27      0.01         0.01
  GQ58                        0.01      0.01      4.54      0.01         0.01
  GQ59                        1.82      1.82      4.54      0.01         0.01
  GQ60                        0.88      0.88      1.88      0.01         0.01
  GQ61                        0.01      0.01      3.41      0.01         0.01
  GQ62                        0.01      0.01      3.61      0.01         0.01
  GQ63                        0.01      0.01      3.82      0.01         0.01
  GQ66                        0.01      0.01      3.79      0.01         0.01
  GQ67                        3.45      3.45      3.60      0.01         0.01
  GQ68                        0.01      0.01      4.16      0.01         0.01
  GQ69                        0.01      0.01      4.80      0.01         0.01
  GQ75                        0.01      0.01      4.13      0.01         0.01
  GQ78                        1.14      1.14      5.10      0.01         0.01
  GQ79                        0.01      0.01      5.10      0.01         0.01
  GQ80                        1.14      1.14      4.15      0.01         0.01
  GQ81                        4.15      4.15      4.19      4.14         1.15
  GQ82                        0.01      0.01      4.19      0.01         0.01
  GQ83                        0.01      0.01      0.46      0.01         0.01
  GQ84                        0.70      0.70      1.52      0.08         0.01
  GQ85                        0.70      0.70      5.37      0.01         0.01
  GQ86                        0.01      0.01      4.85      0.01         0.01
  GQ87                        0.01      0.01      4.85      0.01         0.01
  GQ88                        0.01      0.01      4.94      0.01         0.01
  GQ89                        0.01      0.01      4.31      0.01         0.01
  GQ90                        0.01      0.01      4.02      0.01         0.01
  GQ91                        0.01      0.01      4.55      0.01         0.01
  GQ92                        0.63      0.63      0.75      0.62         0.55
  GQ93                        0.75      0.75      1.09      0.01         0.01
  GQ94                        1.09      1.09      1.16      1.08         1.02
  GQ95                        0.01      0.01      5.02      0.01         0.01
  GQ96                        0.61      0.61      0.63      0.75         0.56
  GQ98                        0.01      0.01      4.78      0.01         0.01
  GQ99                        0.01      0.01      3.70      0.01         0.01
  GQ101                       0.01      0.01      4.54      0.01         0.01
  GQ102                       0.01      0.01      4.76      0.01         0.01
  GQ103                       0.01      0.01      4.98      0.01         0.01
  GQ104                       0.01      0.01      4.98      0.01         0.01
  GQ105                       4.69      4.69      4.76      4.08         0.01
  GQ106                       0.01      0.01      4.78      0.01         0.01
  GQ107                       0.80      0.80      4.78      0.01         0.01
  GQ108                       4.00      4.00      4.69      0.01         0.01
  GQ109                       0.01      0.01      0.80      0.01         0.01
  GQ110                       0.01      0.01      4.13      0.01         0.01
  GQ111                       0.01      0.01      4.54      0.01         0.01
  GQ114                       0.01      0.01      4.97      0.01         0.01
  GQ116                       0.01      0.01      4.81      0.01         0.01
  GQ119                       1.25      1.25      5.05      0.01         0.01
  GQ120                       0.01      0.01      4.96      0.01         0.01
  GQ121                       4.75      4.75      5.05      0.01         0.01
  GQ122                       0.01      0.01      4.75      0.01         0.01
  GQ123                       0.01      0.01      4.80      0.01         0.01
  GQ125                       0.01      0.01      4.55      0.01         0.01
  GQ126                       0.01      0.01      4.54      0.01         0.01
  GQ127                       1.16      1.16      1.25      0.14         0.09
  GQ128                       0.01      0.01      1.00      0.01         0.01
  GQ129                       2.81      2.81      5.06      0.01         0.01
  GQ130                       2.84      2.84      5.48      0.01         0.01
  GQ131                       0.75      0.75      5.34      0.01         0.01
  

  Analysis begun on:  Sat Mar 25 16:17:54 2023
  Analysis ended on:  Sat Mar 25 16:17:57 2023
  Total elapsed time: 00:00:03