
  OWA STORM WATER MANAGEMENT MODEL - VERSION v5.1.14 (OWA 2022-07-31)
  --------------------------------------------------------------

  INP file created by DSDAConvertToSwmmTools 
  version 0.0.1 EcoVista 
  Title/Notes: 
  
  
  *********************************************************
  NOTE: The summary statistics displayed in this report are
  based on results found at every computational time step,  
  not just on results from each reporting time step.
  *********************************************************
  
  ****************
  Analysis Options
  ****************
  Flow Units ............... CMS
  Process Models:
    Rainfall/Runoff ........ YES
    RDII ................... NO
    Snowmelt ............... NO
    Groundwater ............ NO
    Flow Routing ........... YES
    Ponding Allowed ........ NO
    Water Quality .......... NO
  Infiltration Method ...... GREEN_AMPT
  Flow Routing Method ...... DYNWAVE
  Surcharge Method ......... EXTRAN
  Starting Date ............ 07/15/2020 00:00:00
  Ending Date .............. 07/15/2020 09:00:00
  Antecedent Dry Days ...... 0.0
  Report Time Step ......... 00:30:00
  Wet Time Step ............ 00:05:00
  Dry Time Step ............ 01:00:00
  Routing Time Step ........ 30.00 sec
  Variable Time Step ....... YES
  Maximum Trials ........... 8
  Number of Threads ........ 1
  Head Tolerance ........... 0.001500 m
  
  
  **************************        Volume         Depth
  Runoff Quantity Continuity     hectare-m            mm
  **************************     ---------       -------
  Total Precipitation ......       108.705        27.200
  Evaporation Loss .........         2.995         0.749
  Infiltration Loss ........        29.051         7.269
  Surface Runoff ...........        69.455        17.379
  Final Storage ............         7.288         1.824
  Continuity Error (%) .....        -0.077
  
  
  **************************        Volume        Volume
  Flow Routing Continuity        hectare-m      10^6 ltr
  **************************     ---------     ---------
  Dry Weather Inflow .......         0.000         0.000
  Wet Weather Inflow .......        69.394       693.943
  Groundwater Inflow .......         0.000         0.000
  RDII Inflow ..............         0.000         0.000
  External Inflow ..........         0.000         0.000
  External Outflow .........         6.597        65.976
  Flooding Loss ............        61.328       613.287
  Evaporation Loss .........         0.000         0.000
  Exfiltration Loss ........         0.000         0.000
  Initial Stored Volume ....         0.000         0.000
  Final Stored Volume ......         1.302        13.016
  Continuity Error (%) .....         0.240
  
  
  *************************
  Highest Continuity Errors
  *************************
  Node jd51 (7.86%)
  Node jd64 (6.39%)
  Node jd59 (6.35%)
  Node jd31 (5.83%)
  Node jd55 (5.50%)
  
  
  ***************************
  Time-Step Critical Elements
  ***************************
  Link GQ73 (96.56%)
  
  
  ********************************
  Highest Flow Instability Indexes
  ********************************
  Link GQ67 (22)
  Link GQ29 (9)
  Link GQ121 (4)
  Link GQ114 (3)
  Link GQ46 (2)
  
  
  *************************
  Routing Time Step Summary
  *************************
  Minimum Time Step           :     2.83 sec
  Average Time Step           :     8.02 sec
  Maximum Time Step           :    30.00 sec
  Percent in Steady State     :     0.00
  Average Iterations per Step :     3.77
  Percent Not Converging      :    13.92
  
  
  ***************************
  Subcatchment Runoff Summary
  ***************************
  
  ------------------------------------------------------------------------------------------------------------------------------
                            Total      Total      Total      Total     Imperv       Perv      Total       Total     Peak  Runoff
                           Precip      Runon       Evap      Infil     Runoff     Runoff     Runoff      Runoff   Runoff   Coeff
  Subcatchment                 mm         mm         mm         mm         mm         mm         mm    10^6 ltr      CMS
  ------------------------------------------------------------------------------------------------------------------------------
  1                         27.20       0.00       0.45      15.24      10.56       0.00      10.56        4.18     0.37   0.388
  2                         27.20       0.00       0.80       5.79      18.51       0.00      18.51       16.74     1.51   0.681
  3                         27.20       0.00       0.84       4.96      19.43       0.00      19.43        7.77     0.70   0.714
  4                         27.20       0.00       0.86       4.26      20.15       0.00      20.15        1.69     0.15   0.741
  5                         27.20       0.00       0.76       6.93      17.82       0.00      17.82        2.20     0.20   0.655
  6                         27.20       0.00       0.73       7.80      17.10       0.00      17.10        1.59     0.14   0.629
  7                         27.20       0.00       0.76       6.96      17.59       0.00      17.59        7.67     0.69   0.647
  8                         27.20       0.00       0.97       1.52      22.39       0.00      22.39        3.12     0.28   0.823
  9                         27.20       0.00       0.99       0.76      23.09       0.00      23.09        2.70     0.24   0.849
  10                        27.20       0.00       0.86       4.42      19.91       0.00      19.91        4.49     0.40   0.732
  11                        27.20       0.00       0.92       2.60      21.42       0.00      21.42       10.62     0.95   0.788
  12                        27.20       0.00       0.73       7.82      16.95       0.00      16.95        8.27     0.74   0.623
  13                        27.20       0.00       0.91       2.93      21.15       0.00      21.15        9.57     0.86   0.778
  14                        27.20       0.00       0.91       2.97      21.21       0.00      21.21        4.00     0.36   0.780
  15                        27.20       0.00       0.84       4.78      19.58       0.00      19.58        6.62     0.59   0.720
  16                        27.20       0.00       0.87       3.95      20.27       0.00      20.27        5.99     0.54   0.745
  17                        27.20       0.00       0.82       5.43      19.01       0.00      19.01        7.96     0.71   0.699
  18                        27.20       0.00       0.94       2.14      21.82       0.00      21.82        9.01     0.81   0.802
  19                        27.20       0.00       0.94       2.24      21.71       0.00      21.71        4.88     0.44   0.798
  20                        27.20       0.00       0.93       2.39      21.45       0.00      21.45       11.51     1.04   0.789
  21                        27.20       0.00       0.99       0.80      22.96       0.00      22.96        7.20     0.65   0.844
  22                        27.20       0.00       0.97       1.28      22.51       0.00      22.51        2.77     0.25   0.828
  23                        27.20       0.00       0.90       3.33      20.74       0.00      20.74       11.87     1.07   0.762
  24                        27.20       0.00       0.87       4.15      20.01       0.00      20.01        3.55     0.32   0.736
  25                        27.20       0.00       0.93       2.55      21.54       0.00      21.54        4.36     0.39   0.792
  26                        27.20       0.00       0.79       6.21      18.18       0.00      18.18        6.38     0.57   0.669
  27                        27.20       0.00       0.95       2.04      21.76       0.00      21.76        9.19     0.83   0.800
  28                        27.20       0.00       0.97       1.50      22.29       0.00      22.29       10.54     0.95   0.819
  29                        27.20       0.00       0.86       4.22      20.12       0.00      20.12        4.70     0.42   0.740
  30                        27.20       0.00       0.99       0.92      23.05       0.00      23.05        1.65     0.15   0.848
  31                        27.20       0.00       1.00       0.57      23.19       0.00      23.19        5.11     0.46   0.853
  32                        27.20       0.00       0.98       1.21      22.61       0.00      22.61        9.77     0.88   0.831
  33                        27.20       0.00       0.99       0.89      22.86       0.00      22.86        8.06     0.72   0.841
  34                        27.20       0.00       0.92       2.75      21.30       0.00      21.30        6.24     0.56   0.783
  35                        27.20       0.00       0.95       2.05      21.89       0.00      21.89        9.08     0.82   0.805
  36                        27.20       0.00       0.78       6.48      18.15       0.00      18.15        7.14     0.64   0.667
  37                        27.20       0.00       0.97       1.47      22.39       0.00      22.39        4.97     0.45   0.823
  38                        27.20       0.00       0.91       3.08      21.04       0.00      21.04        8.03     0.72   0.774
  39                        27.20       0.00       0.82       5.41      19.06       0.00      19.06        8.05     0.72   0.701
  40                        27.20       0.00       0.91       2.94      21.15       0.00      21.15        4.84     0.43   0.778
  41                        27.20       0.00       0.93       2.39      21.69       0.00      21.69        4.28     0.38   0.797
  42                        27.20       0.00       0.93       2.42      21.46       0.00      21.46        5.30     0.48   0.789
  43                        27.20       0.00       0.78       6.36      18.13       0.00      18.13       14.33     1.28   0.667
  44                        27.20       0.00       0.84       4.96      19.32       0.00      19.32        9.34     0.84   0.710
  45                        27.20       0.00       0.79       6.31      18.22       0.00      18.22       13.18     1.18   0.670
  46                        27.20       0.00       0.76       7.03      17.72       0.00      17.72        8.86     0.79   0.651
  47                        27.20       0.00       0.80       6.01      18.46       0.00      18.46       21.53     1.93   0.679
  48                        27.20       0.00       0.95       1.88      21.86       0.00      21.86       12.69     1.14   0.804
  49                        27.20       0.00       0.87       4.03      20.03       0.00      20.03       13.56     1.22   0.737
  50                        27.20       0.00       0.96       1.53      22.04       0.00      22.04        8.66     0.78   0.810
  51                        27.20       0.00       0.92       2.64      21.13       0.00      21.13        3.95     0.36   0.777
  52                        27.20       0.00       0.45      15.26      10.58       0.00      10.58       10.86     0.96   0.389
  53                        27.20       0.00       0.65       9.90      15.24       0.00      15.24       16.23     1.44   0.560
  54                        27.20       0.00       0.80       5.86      18.66       0.00      18.66        4.55     0.41   0.686
  55                        27.20       0.00       0.46      14.98      10.82       0.00      10.82        8.54     0.76   0.398
  56                        27.20       0.00       0.17      22.59       4.16       0.00       4.16        3.39     0.29   0.153
  57                        27.20       0.00       0.91       3.03      20.90       0.00      20.90       17.36     1.56   0.768
  58                        27.20       0.00       0.84       4.80      19.56       0.00      19.56        3.22     0.29   0.719
  59                        27.20       0.00       0.82       5.34      19.20       0.00      19.20        2.45     0.22   0.706
  60                        27.20       0.00       0.31      19.01       7.32       0.00       7.32        2.10     0.18   0.269
  61                        27.20       0.00       0.48      14.46      11.18       0.00      11.18        4.21     0.38   0.411
  62                        27.20       0.00       0.67       9.46      15.47       0.00      15.47       18.13     1.62   0.569
  63                        27.20       0.00       0.91       3.00      20.83       0.00      20.83       40.29     3.63   0.766
  64                        27.20       0.00       0.68       9.15      15.88       0.00      15.88        3.41     0.30   0.584
  65                        27.20       0.00       0.92       2.65      21.15       0.00      21.15       14.23     1.28   0.778
  66                        27.20       0.00       0.73       7.87      16.81       0.00      16.81        4.28     0.38   0.618
  67                        27.20       0.00       0.68       9.13      15.93       0.00      15.93        5.15     0.46   0.586
  68                        27.20       0.00       0.81       5.53      18.97       0.00      18.97        2.11     0.19   0.697
  69                        27.20       0.00       0.48      14.48      11.34       0.00      11.34        3.63     0.32   0.417
  70                        27.20       0.00       0.67       9.30      15.66       0.00      15.66       12.88     1.15   0.576
  71                        27.20       0.00       0.83       5.08      19.34       0.00      19.34        2.37     0.21   0.711
  72                        27.20       0.00       0.88       3.88      20.39       0.00      20.39        2.54     0.23   0.749
  73                        27.20       0.00       0.79       6.07      18.56       0.00      18.56        3.08     0.27   0.682
  74                        27.20       0.00       0.76       7.06      17.68       0.00      17.68        3.81     0.34   0.650
  75                        27.20       0.00       0.84       4.82      19.59       0.00      19.59        2.82     0.25   0.720
  76                        27.20       0.00       0.89       3.65      20.62       0.00      20.62        2.00     0.18   0.758
  77                        27.20       0.00       0.94       2.09      21.90       0.00      21.90        2.37     0.21   0.805
  78                        27.20       0.00       0.91       2.98      21.12       0.00      21.12        2.32     0.21   0.777
  79                        27.20       0.00       0.40      16.57       9.45       0.00       9.45       10.02     0.88   0.347
  80                        27.20       0.00       0.75       7.18      17.42       0.00      17.42       10.91     0.98   0.641
  81                        27.20       0.00       0.76       6.86      17.69       0.00      17.69        7.71     0.69   0.650
  82                        27.20       0.00       0.73       7.72      16.96       0.00      16.96       15.55     1.39   0.623
  83                        27.20       0.00       0.92       2.85      21.29       0.00      21.29        2.60     0.23   0.783
  84                        27.20       0.00       0.86       4.22      20.05       0.00      20.05        2.39     0.21   0.737
  85                        27.20       0.00       1.01       0.21      23.59       0.00      23.59        2.19     0.20   0.867
  86                        27.20       0.00       0.94       2.30      21.73       0.00      21.73        3.20     0.29   0.799
  87                        27.20       0.00       1.00       0.58      23.14       0.00      23.14        3.04     0.27   0.851
  88                        27.20       0.00       0.90       3.39      20.83       0.00      20.83        1.99     0.18   0.766
  89                        27.20       0.00       0.94       2.19      21.86       0.00      21.86        4.21     0.38   0.803
  90                        27.20       0.00       1.02       0.01      23.83       0.00      23.83        0.27     0.02   0.876
  91                        27.20       0.00       0.85       4.56      19.59       0.00      19.59        4.27     0.38   0.720
  92                        27.20       0.00       0.94       2.12      21.89       0.00      21.89        2.74     0.25   0.805
  93                        27.20       0.00       0.77       6.76      17.86       0.00      17.86        9.14     0.82   0.657
  94                        27.20       0.00       0.69       8.81      16.28       0.00      16.28        1.14     0.10   0.598
  95                        27.20       0.00       1.02       0.03      23.73       0.00      23.73        0.52     0.05   0.873
  96                        27.20       0.00       0.82       5.27      19.21       0.00      19.21        2.35     0.21   0.706
  97                        27.20       0.00       1.00       0.58      23.23       0.00      23.23        2.31     0.21   0.854
  98                        27.20       0.00       0.83       5.14      19.34       0.00      19.34        2.38     0.21   0.711
  99                        27.20       0.00       0.41      16.27       9.74       0.00       9.74        3.62     0.32   0.358
  100                       27.20       0.00       0.46      15.05      10.82       0.00      10.82        2.78     0.24   0.398
  101                       27.20       0.00       0.47      14.75      11.05       0.00      11.05        5.41     0.48   0.406
  102                       27.20       0.00       0.76       6.92      17.75       0.00      17.75        4.33     0.39   0.653
  103                       27.20       0.00       0.25      20.42       6.09       0.00       6.09        2.21     0.19   0.224
  104                       27.20       0.00       0.17      22.61       4.12       0.00       4.12        3.99     0.35   0.151
  105                       27.20       0.00       0.84       4.83      19.61       0.00      19.61        2.56     0.23   0.721
  106                       27.20       0.00       0.46      15.08      10.76       0.00      10.76        2.63     0.23   0.396
  
  
  ******************
  Node Depth Summary
  ******************
  
  ---------------------------------------------------------------------------------
                                 Average  Maximum  Maximum  Time of Max    Reported
                                   Depth    Depth      HGL   Occurrence   Max Depth
  Node                 Type       Meters   Meters   Meters  days hr:min      Meters
  ---------------------------------------------------------------------------------
  jd1                  JUNCTION     0.11     0.17   273.17     0  05:00        0.17
  jd2                  JUNCTION     0.29     0.56   267.56     0  05:00        0.56
  jd3                  JUNCTION     2.78     3.00   266.00     0  01:46        3.00
  jd4                  JUNCTION     1.27     3.00   270.00     0  03:16        3.00
  jd5                  JUNCTION     0.07     0.12   274.12     0  05:00        0.12
  jd6                  JUNCTION     0.09     0.15   275.15     0  05:00        0.15
  jd7                  JUNCTION     0.31     0.45   264.55     0  05:00        0.45
  jd8                  JUNCTION     1.85     3.00   267.00     0  01:49        3.00
  jd9                  JUNCTION     1.46     3.00   268.00     0  01:59        3.00
  jd10                 JUNCTION     2.80     3.00   273.00     0  01:40        3.00
  jd11                 JUNCTION     0.08     0.13   282.13     0  05:00        0.13
  jd12                 JUNCTION     2.81     3.00   272.00     0  01:37        3.00
  jd13                 JUNCTION     0.10     0.16   289.16     0  05:00        0.16
  jd14                 JUNCTION     0.22     0.38   280.38     0  05:00        0.38
  jd15                 JUNCTION     0.23     0.38   278.38     0  05:00        0.38
  jd16                 JUNCTION     0.25     0.41   274.41     0  05:00        0.41
  jd17                 JUNCTION     2.38     3.00   278.80     0  01:55        3.00
  jd18                 JUNCTION     0.23     0.46   279.46     0  05:00        0.46
  jd19                 JUNCTION     1.07     3.00   270.00     0  03:20        3.00
  jd20                 JUNCTION     0.18     0.26   273.26     0  05:00        0.26
  jd21                 JUNCTION     2.78     3.00   273.00     0  01:44        3.00
  jd22                 JUNCTION     1.63     3.00   275.00     0  04:09        3.00
  jd23                 JUNCTION     0.19     0.32   278.32     0  05:00        0.32
  jd24                 JUNCTION     0.12     0.19   285.19     0  05:00        0.19
  jd25                 JUNCTION     0.19     0.32   279.32     0  05:00        0.32
  jd26                 JUNCTION     0.22     0.38   285.38     0  05:00        0.38
  jd27                 JUNCTION     0.18     0.30   291.30     0  04:58        0.30
  jd28                 JUNCTION     2.83     3.00   290.00     0  01:32        3.00
  jd29                 JUNCTION     0.08     0.13   299.13     0  05:00        0.13
  jd30                 JUNCTION     0.11     0.18   290.18     0  05:00        0.18
  jd31                 JUNCTION     0.97     3.00   275.00     0  01:57        1.20
  jd32                 JUNCTION     2.82     3.00   275.00     0  01:37        3.00
  jd33                 JUNCTION     0.16     0.26   289.26     0  05:00        0.26
  jd34                 JUNCTION     0.18     0.30   294.30     0  05:00        0.30
  jd35                 JUNCTION     2.85     3.00   292.00     0  01:27        3.00
  jd36                 JUNCTION     0.28     2.59   301.59     0  05:01        0.59
  jd37                 JUNCTION     0.26     0.47   303.47     0  05:00        0.47
  jd38                 JUNCTION     0.31     0.56   297.56     0  05:00        0.56
  jd39                 JUNCTION     2.78     3.00   297.00     0  01:45        3.00
  jd40                 JUNCTION     1.00     3.00   302.00     0  03:40        3.00
  jd41                 JUNCTION     2.71     3.00   296.00     0  02:06        3.00
  jd42                 JUNCTION     0.16     0.27   305.27     0  05:00        0.27
  jd43                 JUNCTION     0.81     3.00   300.00     0  04:09        3.00
  jd44                 JUNCTION     0.93     3.00   286.00     0  03:52        3.00
  jd45                 JUNCTION     2.80     3.00   282.00     0  01:42        3.00
  jd46                 JUNCTION     0.23     0.39   275.39     0  05:00        0.39
  jd47                 JUNCTION     0.13     0.21   315.21     0  05:00        0.21
  jd48                 JUNCTION     0.09     0.15   325.15     0  05:00        0.15
  jd49                 JUNCTION     0.21     0.35   289.35     0  05:00        0.35
  jd50                 JUNCTION     2.84     3.00   278.00     0  01:31        3.00
  jd51                 JUNCTION     2.68     3.00   313.00     0  02:10        3.00
  jd52                 JUNCTION     0.33     0.61   323.61     0  05:00        0.61
  jd53                 JUNCTION     0.36     0.74   322.74     0  05:01        0.74
  jd54                 JUNCTION     0.24     0.39   326.39     0  05:00        0.39
  jd55                 JUNCTION     1.33     1.82   323.82     0  05:00        1.82
  jd56                 JUNCTION     0.15     0.26   327.26     0  05:00        0.26
  jd59                 JUNCTION     2.64     3.00   320.80     0  02:17        3.00
  jd60                 JUNCTION     2.82     3.00   319.00     0  01:36        3.00
  jd61                 JUNCTION     0.12     0.19   329.19     0  05:00        0.19
  jd62                 JUNCTION     0.05     0.09   335.09     0  05:00        0.09
  jd63                 JUNCTION     0.06     0.09   324.09     0  05:00        0.09
  jd64                 JUNCTION     2.46     3.00   321.00     0  02:17        2.83
  jd65                 JUNCTION     1.93     3.00   307.00     0  02:00        3.00
  jd66                 JUNCTION     2.80     3.00   304.00     0  01:41        3.00
  jd69                 JUNCTION     0.19     0.31   333.31     0  05:00        0.31
  jd79                 JUNCTION     2.79     3.00   274.00     0  01:34        3.00
  jd80                 JUNCTION     2.50     3.00   279.00     0  01:45        3.00
  jd81                 JUNCTION     0.12     0.20   288.20     0  05:00        0.20
  jd83                 JUNCTION     2.86     3.00   323.00     0  01:24        3.00
  jd84                 JUNCTION     0.19     0.34   323.34     0  05:00        0.34
  jd85                 JUNCTION     2.81     3.00   324.00     0  01:39        3.00
  jd87                 JUNCTION     2.81     3.00   322.00     0  01:38        3.00
  jd89                 JUNCTION     0.13     0.21   324.21     0  05:00        0.21
  jd90                 JUNCTION     0.12     0.19   328.19     0  05:00        0.19
  jd92                 JUNCTION     0.12     0.19   326.19     0  05:00        0.19
  jd93                 JUNCTION     0.36     0.65   324.65     0  05:00        0.65
  jd94                 JUNCTION     0.21     0.34   326.54     0  05:00        0.34
  jd95                 JUNCTION     0.28     0.46   327.46     0  05:00        0.46
  jd96                 JUNCTION     2.83     3.00   308.00     0  01:33        3.00
  jd97                 JUNCTION     0.28     0.47   327.67     0  05:00        0.47
  jd98                 JUNCTION     0.16     0.26   329.26     0  05:00        0.26
  jd99                 JUNCTION     2.80     3.00   327.00     0  01:41        3.00
  jd101                JUNCTION     0.09     0.15   321.15     0  05:00        0.15
  jd102                JUNCTION     0.19     0.32   324.32     0  05:00        0.32
  jd103                JUNCTION     0.09     0.15   318.15     0  05:00        0.15
  jd106                JUNCTION     2.73     3.00   287.00     0  01:56        3.00
  jd107                JUNCTION     0.18     0.29   332.29     0  05:00        0.29
  jd108                JUNCTION     1.12     1.47   327.47     0  01:36        1.30
  jd109                JUNCTION     0.14     0.22   343.22     0  05:00        0.22
  jd110                JUNCTION     2.81     3.00   327.00     0  01:38        3.00
  jd111                JUNCTION     0.06     0.10   344.10     0  05:00        0.10
  jd112                JUNCTION     0.08     0.13   334.13     0  05:00        0.13
  jd113                JUNCTION     0.09     0.14   348.14     0  05:00        0.14
  jd114                JUNCTION     2.80     3.00   317.00     0  01:40        3.00
  jd117                JUNCTION     1.07     3.00   319.00     0  01:45        1.50
  jd118                JUNCTION     0.08     0.12   330.12     0  05:00        0.12
  jd120                JUNCTION     0.13     0.22   327.22     0  05:00        0.22
  jd121                JUNCTION     0.14     0.22   320.22     0  05:00        0.22
  jd122                JUNCTION     2.78     3.00   276.00     0  01:44        3.00
  jd123                JUNCTION     2.77     3.00   276.20     0  01:47        3.00
  jd124                JUNCTION     2.87     3.00   271.00     0  01:20        3.00
  jd125                JUNCTION     1.16     3.00   278.00     0  03:19        3.00
  jd126                JUNCTION     2.86     3.00   275.00     0  01:25        3.00
  jd135                JUNCTION     0.11     0.19   289.19     0  05:00        0.19
  jd136                JUNCTION     0.22     0.36   341.36     0  05:00        0.36
  psk1                 OUTFALL      0.08     0.13   279.13     0  05:00        0.13
  psk2                 OUTFALL      0.11     0.18   270.18     0  05:00        0.18
  psk3                 OUTFALL      0.25     0.41   271.41     0  05:00        0.41
  psk4                 OUTFALL      0.00     0.00   280.00     0  00:00        0.00
  psk5                 OUTFALL      0.10     0.17   263.17     0  05:00        0.17
  psk6                 OUTFALL      0.07     0.12   259.12     0  05:00        0.12
  psk7                 OUTFALL      0.31     0.45   262.45     0  05:00        0.45
  psk8                 OUTFALL      0.00     0.00   317.00     0  00:00        0.00
  
  
  *******************
  Node Inflow Summary
  *******************
  
  -------------------------------------------------------------------------------------------------
                                  Maximum  Maximum                  Lateral       Total        Flow
                                  Lateral    Total  Time of Max      Inflow      Inflow     Balance
                                   Inflow   Inflow   Occurrence      Volume      Volume       Error
  Node                 Type           CMS      CMS  days hr:min    10^6 ltr    10^6 ltr     Percent
  -------------------------------------------------------------------------------------------------
  jd1                  JUNCTION     0.370    0.599     0  05:00        4.18         6.8       0.164
  jd2                  JUNCTION     0.574    0.784     0  05:00        6.38        8.76       0.289
  jd3                  JUNCTION     0.688    1.978     0  05:00        7.66        24.9       1.631
  jd4                  JUNCTION     0.829    0.926     0  05:00        9.19        10.3       0.335
  jd5                  JUNCTION     0.242    0.417     0  05:00         2.7        4.73       0.066
  jd6                  JUNCTION     0.280    0.280     0  05:00        3.12        3.12       0.088
  jd7                  JUNCTION     0.141    1.728     0  05:00        1.59        24.7       0.175
  jd8                  JUNCTION     0.196    1.142     0  05:00         2.2        17.8       0.985
  jd9                  JUNCTION     0.151    1.218     0  05:00        1.69        16.8       0.217
  jd10                 JUNCTION     0.402    0.510     0  05:00        4.48         5.7       1.804
  jd11                 JUNCTION     0.593    0.593     0  05:00        6.61        6.61       0.098
  jd12                 JUNCTION     0.447    0.972     0  05:00        4.97        10.8       1.296
  jd13                 JUNCTION     0.809    0.809     0  05:00           9           9       0.082
  jd14                 JUNCTION     0.948    1.068     0  05:00        10.5        11.8       0.200
  jd15                 JUNCTION     0.391    0.868     0  05:00        4.36         9.5       0.574
  jd16                 JUNCTION     0.420    1.639     0  05:00        4.69          18       0.217
  jd17                 JUNCTION     0.878    2.088     0  05:00        9.76        26.7       2.473
  jd18                 JUNCTION     0.696    1.012     0  05:00        7.77        11.3       0.284
  jd19                 JUNCTION     0.647    1.203     0  05:00        7.22        15.5       0.198
  jd20                 JUNCTION     0.537    0.767     0  05:00        5.98        11.4       0.320
  jd21                 JUNCTION     0.249    1.957     0  05:00        2.77        23.7       1.442
  jd22                 JUNCTION     0.439    0.954     0  05:00        4.88        10.9       0.756
  jd23                 JUNCTION     0.434    1.210     0  05:00        4.83        13.4       0.157
  jd24                 JUNCTION     0.713    0.713     0  05:00        7.95        7.95       0.101
  jd25                 JUNCTION     0.560    0.812     0  05:00        6.24        9.02       0.207
  jd26                 JUNCTION     0.816    1.379     0  04:58        9.07        15.2       0.193
  jd27                 JUNCTION     0.839    1.444     0  04:56        9.33        15.7       0.199
  jd28                 JUNCTION     1.144    1.615     0  05:00        12.7        17.9       0.747
  jd29                 JUNCTION     0.459    0.459     0  05:00        5.11        5.11       0.044
  jd30                 JUNCTION     0.477    1.461     0  05:00         5.3          15       0.116
  jd31                 JUNCTION     0.319    0.812     0  01:57        3.54        7.77       6.190
  jd32                 JUNCTION     0.648    2.655     0  05:00         7.2        31.4       0.793
  jd33                 JUNCTION     0.638    1.059     0  05:00        7.14        11.9       0.096
  jd34                 JUNCTION     0.789    0.789     0  05:00        8.85        8.85       0.075
  jd35                 JUNCTION     0.720    2.440     0  04:50        8.04          28       0.468
  jd36                 JUNCTION     1.221    1.998     0  05:00        13.5        22.2       0.249
  jd37                 JUNCTION     1.285    1.285     0  05:00        14.3        14.3       0.154
  jd38                 JUNCTION     1.180    1.950     0  05:00        13.2        21.7       0.322
  jd39                 JUNCTION     0.818    3.139     0  05:00        9.13        39.5       1.304
  jd40                 JUNCTION     1.393    3.460     0  05:00        15.5        37.6       0.329
  jd41                 JUNCTION     0.979    3.754     0  05:00        10.9        44.8       4.964
  jd42                 JUNCTION     1.283    1.407     0  05:00        14.2        15.6       0.256
  jd43                 JUNCTION     1.442    2.578     0  05:00        16.2        28.3       0.333
  jd44                 JUNCTION     1.929    4.181     0  05:00        21.5        52.2       0.307
  jd45                 JUNCTION     0.782    3.007     0  05:00        8.65          35       0.926
  jd46                 JUNCTION     0.357    0.357     0  05:00        3.95        3.95       0.737
  jd47                 JUNCTION     1.152    1.152     0  05:00        12.9        12.9      -0.014
  jd48                 JUNCTION     0.319    0.319     0  05:00        3.63        3.63       0.071
  jd49                 JUNCTION     1.564    1.564     0  05:00        17.3        17.3       0.192
  jd50                 JUNCTION     1.622    3.857     0  05:00        18.1        55.5       0.781
  jd51                 JUNCTION     0.339    1.562     0  05:00         3.8        17.5       8.528
  jd52                 JUNCTION     0.692    2.791     0  05:00         7.7          30       0.295
  jd53                 JUNCTION     0.384    2.136     0  05:00        4.27        23.5       0.173
  jd54                 JUNCTION     0.207    1.030     0  05:00        2.31        11.5       0.209
  jd55                 JUNCTION     0.377    1.270     0  05:00        4.21        13.9       5.821
  jd56                 JUNCTION     0.229    0.671     0  05:00        2.56        7.48       0.136
  jd59                 JUNCTION     0.227    1.128     0  05:00        2.54        12.2       6.777
  jd60                 JUNCTION     0.407    0.864     0  05:00        4.54        9.71       1.344
  jd61                 JUNCTION     0.457    0.514     0  05:00        5.15        5.79       0.104
  jd62                 JUNCTION     0.184    0.184     0  05:00        2.09        2.09       0.019
  jd63                 JUNCTION     0.253    0.253     0  05:00        2.82        2.82       0.041
  jd64                 JUNCTION     0.213    0.525     0  05:00        2.37        5.85       6.830
  jd65                 JUNCTION     3.633    3.633     0  05:00        40.2        40.2       0.146
  jd66                 JUNCTION     0.477    1.384     0  05:00        5.41        15.7       2.039
  jd69                 JUNCTION     0.882    0.907     0  05:00          10        10.3       0.116
  jd79                 JUNCTION     0.858    1.611     0  05:00        9.56        17.2       1.022
  jd80                 JUNCTION     0.954    1.209     0  05:00        10.6        14.2       0.881
  jd81                 JUNCTION     0.724    0.724     0  05:00        8.05        8.05       0.034
  jd83                 JUNCTION     0.755    0.950     0  05:00        8.53        11.4       0.747
  jd84                 JUNCTION     0.960    0.960     0  05:00        10.9        10.9       0.098
  jd85                 JUNCTION     0.218    0.357     0  05:00        2.44        4.02       2.140
  jd87                 JUNCTION     0.179    0.431     0  05:00           2        4.84       1.553
  jd89                 JUNCTION     0.208    0.208     0  05:00        2.32        2.32       0.135
  jd90                 JUNCTION     0.212    0.212     0  05:00        2.37        2.37       0.060
  jd92                 JUNCTION     0.178    0.178     0  05:00        1.99        1.99       0.050
  jd93                 JUNCTION     0.384    0.831     0  05:00        4.28        9.26       0.230
  jd94                 JUNCTION     0.024    0.447     0  05:00       0.273        4.99       0.281
  jd95                 JUNCTION     0.046    0.422     0  05:00       0.518        4.73       0.226
  jd96                 JUNCTION     0.348    0.464     0  05:00        3.98        5.28       1.839
  jd97                 JUNCTION     0.376    0.376     0  05:00        4.21        4.21       0.050
  jd98                 JUNCTION     0.210    0.210     0  05:00        2.35        2.35       0.085
  jd99                 JUNCTION     0.101    0.302     0  05:00        1.14         3.8       1.482
  jd101                JUNCTION     0.275    0.549     0  05:00        3.08        6.12       0.006
  jd102                JUNCTION     0.274    0.274     0  05:00        3.04        3.04       0.162
  jd103                JUNCTION     0.189    0.189     0  05:00        2.11        2.11       0.022
  jd106                JUNCTION     0.148    0.874     0  05:00        1.65        9.52       4.217
  jd107                JUNCTION     0.213    0.700     0  05:00        2.38        7.84       0.197
  jd108                JUNCTION     0.232    0.232     0  05:00        2.62        2.64       2.556
  jd109                JUNCTION     0.387    0.387     0  05:00        4.32        4.32       0.040
  jd110                JUNCTION     0.294    0.438     0  05:00        3.39        5.03       3.094
  jd111                JUNCTION     0.244    0.244     0  05:00        2.77        2.77       0.040
  jd112                JUNCTION     0.287    0.798     0  05:00         3.2        9.01       0.064
  jd113                JUNCTION     0.193    0.193     0  05:00        2.21        2.21      -0.009
  jd114                JUNCTION     0.233    3.057     0  04:58         2.6        33.9       0.936
  jd117                JUNCTION     0.215    0.705     0  05:00        2.39           8       1.961
  jd118                JUNCTION     0.197    0.197     0  05:00        2.19        2.19      -0.001
  jd120                JUNCTION     0.245    0.245     0  05:00        2.73        2.73       0.053
  jd121                JUNCTION     0.303    0.303     0  05:00        3.41        3.41       0.085
  jd122                JUNCTION     0.720    2.830     0  04:58        8.02          36       1.587
  jd123                JUNCTION     0.740    2.601     0  05:00        8.26        38.6       1.806
  jd124                JUNCTION     1.067    2.140     0  05:00        11.9        30.6       0.186
  jd125                JUNCTION     1.037    2.712     0  05:00        11.5        36.6       0.140
  jd126                JUNCTION     1.506    2.096     0  05:00        16.7        23.4       0.429
  jd135                JUNCTION     0.383    0.383     0  05:00        4.27        4.27       0.047
  jd136                JUNCTION     0.318    0.511     0  05:00        3.61        5.83       0.173
  psk1                 OUTFALL      0.000    0.381     0  05:00           0        4.27       0.000
  psk2                 OUTFALL      0.000    1.080     0  05:00           0          11       0.000
  psk3                 OUTFALL      0.000    1.637     0  05:00           0        17.9       0.000
  psk4                 OUTFALL      0.000    0.000     0  00:00           0           0       0.000 ltr
  psk5                 OUTFALL      0.000    0.389     0  05:00           0        4.41       0.000
  psk6                 OUTFALL      0.000    0.320     0  05:00           0        3.62       0.000
  psk7                 OUTFALL      0.000    1.728     0  05:00           0        24.7       0.000
  psk8                 OUTFALL      0.000    0.000     0  00:00           0           0       0.000 ltr
  
  
  **********************
  Node Surcharge Summary
  **********************
  
  Surcharging occurs when water rises above the top of the highest conduit.
  ---------------------------------------------------------------------
                                               Max. Height   Min. Depth
                                   Hours       Above Crown    Below Rim
  Node                 Type      Surcharged         Meters       Meters
  ---------------------------------------------------------------------
  jd3                  JUNCTION        7.24          2.200        0.000
  jd4                  JUNCTION        2.46          2.200        0.000
  jd8                  JUNCTION        6.51          2.200        0.000
  jd9                  JUNCTION        4.04          2.200        0.000
  jd10                 JUNCTION        7.33          2.400        0.000
  jd12                 JUNCTION        7.38          2.400        0.000
  jd17                 JUNCTION        6.55          2.200        0.000
  jd19                 JUNCTION        1.93          2.200        0.000
  jd21                 JUNCTION        7.26          2.200        0.000
  jd22                 JUNCTION        7.15          2.400        0.000
  jd28                 JUNCTION        7.46          2.400        0.000
  jd31                 JUNCTION        7.04          2.200        0.000
  jd32                 JUNCTION        7.38          2.200        0.000
  jd35                 JUNCTION        7.55          2.400        0.000
  jd36                 JUNCTION        0.05          1.985        0.415
  jd39                 JUNCTION        7.24          2.000        0.000
  jd40                 JUNCTION        1.63          2.200        0.000
  jd41                 JUNCTION        6.89          1.000        0.000
  jd43                 JUNCTION        1.00          2.200        0.000
  jd44                 JUNCTION        1.38          2.000        0.000
  jd45                 JUNCTION        7.30          2.000        0.000
  jd50                 JUNCTION        7.47          2.200        0.000
  jd51                 JUNCTION        6.83          1.350        0.000
  jd55                 JUNCTION        1.93          0.317        1.183
  jd59                 JUNCTION        6.72          1.500        0.000
  jd60                 JUNCTION        7.41          2.400        0.000
  jd64                 JUNCTION        6.75          1.800        0.000
  jd65                 JUNCTION        4.22          2.400        0.000
  jd66                 JUNCTION        7.32          2.200        0.000
  jd79                 JUNCTION        7.43          2.400        0.000
  jd80                 JUNCTION        6.95          2.400        0.000
  jd83                 JUNCTION        7.60          2.400        0.000
  jd85                 JUNCTION        7.35          2.400        0.000
  jd87                 JUNCTION        7.37          2.400        0.000
  jd96                 JUNCTION        7.45          2.200        0.000
  jd99                 JUNCTION        7.31          2.400        0.000
  jd106                JUNCTION        7.06          2.000        0.000
  jd108                JUNCTION        7.39          0.469        1.531
  jd110                JUNCTION        7.36          2.000        0.000
  jd114                JUNCTION        7.33          2.000        0.000
  jd117                JUNCTION        7.25          2.200        0.000
  jd122                JUNCTION        7.27          2.200        0.000
  jd123                JUNCTION        7.22          2.200        0.000
  jd124                JUNCTION        7.66          2.400        0.000
  jd125                JUNCTION        2.24          2.200        0.000
  jd126                JUNCTION        7.57          2.400        0.000
  
  
  *********************
  Node Flooding Summary
  *********************
  
  Flooding refers to all water that overflows a node, whether it ponds or not.
  --------------------------------------------------------------------------
                                                             Total   Maximum
                                 Maximum   Time of Max       Flood    Ponded
                        Hours       Rate    Occurrence      Volume     Depth
  Node                 Flooded       CMS   days hr:min    10^6 ltr    Meters
  --------------------------------------------------------------------------
  jd3                     7.23     1.978      0  05:00      24.518     0.000
  jd4                     2.00     0.416      0  05:00       1.735     0.000
  jd8                     1.82     0.120      0  01:49       0.517     0.000
  jd9                     1.77     0.273      0  05:00       1.115     0.000
  jd10                    7.33     0.510      0  05:00       5.604     0.000
  jd12                    7.38     0.972      0  05:00      10.626     0.000
  jd17                    3.74     1.259      0  05:00       7.205     0.000
  jd19                    0.90     0.135      0  05:00       0.336     0.000
  jd21                    7.05     1.956      0  05:00      23.090     0.000
  jd22                    0.93     0.130      0  05:00       0.323     0.000
  jd28                    7.45     1.615      0  05:00      17.768     0.000
  jd31                    0.01     0.651      0  01:57       0.005     0.000
  jd32                    7.38     2.655      0  05:00      31.129     0.000
  jd35                    7.55     2.440      0  04:50      27.836     0.000
  jd39                    7.24     3.139      0  05:00      39.027     0.000
  jd40                    1.12     0.898      0  05:00       2.575     0.000
  jd41                    6.89     3.754      0  05:00      42.725     0.000
  jd43                    0.95     0.747      0  05:00       2.200     0.000
  jd44                    0.85     0.374      0  03:52       0.620     0.000
  jd45                    7.30     3.007      0  05:00      34.661     0.000
  jd50                    7.47     3.857      0  05:00      55.055     0.000
  jd51                    6.82     1.562      0  05:00      16.112     0.000
  jd59                    6.72     1.128      0  05:00      11.427     0.000
  jd60                    7.40     0.864      0  05:00       9.581     0.000
  jd64                    0.01     0.013      0  02:17       0.000     0.000
  jd65                    4.11     2.539      0  05:00      15.480     0.000
  jd66                    7.32     1.384      0  05:00      15.374     0.000
  jd79                    6.65     1.381      0  05:00      11.597     0.000
  jd80                    4.53     1.052      0  05:00       8.797     0.000
  jd83                    7.60     0.950      0  05:00      11.283     0.000
  jd85                    7.35     0.357      0  05:00       3.940     0.000
  jd87                    7.36     0.431      0  05:00       4.764     0.000
  jd96                    7.45     0.464      0  05:00       5.184     0.000
  jd99                    7.31     0.302      0  05:00       3.749     0.000
  jd106                   7.06     0.874      0  05:00       9.137     0.000
  jd110                   7.35     0.438      0  05:00       4.880     0.000
  jd114                   7.26     3.057      0  04:58      33.494     0.000
  jd117                   0.01     0.472      0  01:45       0.006     0.000
  jd122                   7.23     2.830      0  04:58      35.285     0.000
  jd123                   7.22     2.287      0  05:00      29.779     0.000
  jd124                   7.66     2.140      0  05:00      30.506     0.000
  jd125                   1.08     0.326      0  05:00       0.956     0.000
  jd126                   7.57     2.096      0  05:00      23.304     0.000
  
  
  ***********************
  Outfall Loading Summary
  ***********************
  
  -----------------------------------------------------------
                         Flow       Avg       Max       Total
                         Freq      Flow      Flow      Volume
  Outfall Node           Pcnt       CMS       CMS    10^6 ltr
  -----------------------------------------------------------
  psk1                  96.98     0.175     0.381       4.275
  psk2                  96.95     0.456     1.080      11.039
  psk3                  97.00     0.737     1.637      17.924
  psk4                   0.00     0.000     0.000       0.000
  psk5                  96.98     0.180     0.389       4.410
  psk6                  96.95     0.148     0.320       3.622
  psk7                  96.98     0.987     1.728      24.705
  psk8                   0.00     0.000     0.000       0.000
  -----------------------------------------------------------
  System                72.73     2.684     0.000      65.975
  
  
  ********************
  Link Flow Summary
  ********************
  
  -----------------------------------------------------------------------------
                                 Maximum  Time of Max   Maximum    Max/    Max/
                                  |Flow|   Occurrence   |Veloc|    Full    Full
  Link                 Type          CMS  days hr:min     m/sec    Flow   Depth
  -----------------------------------------------------------------------------
  GQ1                  CONDUIT     0.228     0  05:00      1.84    0.60    0.45
  GQ2                  CONDUIT     0.638     0  05:00      2.22    0.30    0.39
  GQ3                  CONDUIT     0.381     0  05:00      5.34    0.01    0.08
  GQ4                  CONDUIT     0.510     0  03:52      1.80    1.00    1.00
  GQ5                  CONDUIT     0.779     0  05:00      1.71    0.64    0.85
  GQ6                  CONDUIT     0.210     0  05:00      1.10    0.09    0.46
  GQ7                  CONDUIT     1.675     0  04:26      3.58    1.00    1.00
  GQ8                  CONDUIT     0.420     0  05:00      1.08    0.40    0.72
  GQ9                  CONDUIT     1.142     0  05:00      2.94    0.40    0.72
  GQ10                 CONDUIT     1.135     0  01:59      4.10    1.04    1.00
  GQ11                 CONDUIT     0.124     0  05:00      1.57    0.13    0.35
  GQ12                 CONDUIT     0.145     0  05:00      0.76    0.16    0.63
  GQ13                 CONDUIT     0.097     0  05:00      0.44    0.05    0.57
  GQ14                 CONDUIT     0.048     0  05:00      0.88    0.07    0.16
  GQ15                 CONDUIT     0.127     0  05:00      3.97    0.51    0.46
  GQ16                 CONDUIT     0.984     0  05:00      3.72    0.48    0.37
  GQ17                 CONDUIT     0.232     0  05:00      1.36    0.07    0.37
  GQ18                 CONDUIT     1.046     0  05:00      2.50    4.72    0.78
  GQ19                 CONDUIT     0.309     0  05:00      1.64    0.04    0.29
  GQ20                 CONDUIT     0.068     0  05:00      0.40    0.04    0.29
  GQ21                 CONDUIT     0.248     0  05:00      1.26    0.08    0.32
  GQ22                 CONDUIT     0.252     0  05:00      1.60    0.08    0.25
  GQ23                 CONDUIT     0.451     0  05:00      2.07    0.22    0.32
  GQ24                 CONDUIT     0.694     0  05:00      1.84    0.34    0.70
  GQ25                 CONDUIT     0.421     0  05:00      3.31    0.47    0.46
  GQ26                 CONDUIT     0.325     0  05:00      2.40    0.38    0.48
  GQ27                 CONDUIT     0.515     0  05:00      2.21    0.52    0.77
  GQ28                 CONDUIT     0.210     0  05:00      0.60    0.23    0.66
  GQ29                 CONDUIT     0.674     0  05:00      1.34    0.31    1.00
  GQ30                 CONDUIT     0.824     0  04:18      2.91    1.00    1.00
  GQ31                 CONDUIT     0.368     0  05:00      1.62    0.49    0.75
  GQ32                 CONDUIT     0.607     0  04:54      2.96    0.97    0.75
  GQ33                 CONDUIT     1.354     0  04:50      4.88    0.94    1.00
  GQ34                 CONDUIT     0.262     0  05:00      1.36    0.41    0.72
  GQ35                 CONDUIT     0.514     0  05:00      2.08    0.95    0.89
  GQ36                 CONDUIT     0.769     0  05:00      2.98    0.95    0.86
  GQ37                 CONDUIT     0.333     0  04:58      1.46    0.48    0.75
  GQ38                 CONDUIT     0.138     0  05:00      0.71    0.20    0.65
  GQ39                 CONDUIT     0.559     0  05:00      2.26    0.72    0.82
  GQ40                 CONDUIT     0.410     0  04:58      2.45    0.51    0.57
  GQ41                 CONDUIT     0.961     0  05:00      1.46    0.45    0.78
  GQ42                 CONDUIT     1.359     0  04:34      2.70    1.00    1.00
  GQ43                 CONDUIT     2.066     0  05:00      4.41    0.92    0.88
  GQ44                 CONDUIT     0.946     0  03:48      1.88    1.00    1.00
  GQ45                 CONDUIT     0.557     0  05:00      1.79    0.23    0.66
  GQ46                 CONDUIT     1.068     0  04:30      2.12    1.00    1.00
  GQ47                 CONDUIT     0.109     0  05:00      0.60    0.10    0.61
  GQ48                 CONDUIT     0.108     0  05:00      0.60    0.10    0.61
  GQ49                 CONDUIT     0.417     0  05:00      2.21    0.16    0.63
  GQ50                 CONDUIT     0.120     0  05:00      0.98    0.16    0.45
  GQ51                 CONDUIT     0.478     0  05:00      2.54    0.73    0.63
  GQ52                 CONDUIT     0.355     0  05:00      0.89    0.47    0.74
  GQ53                 CONDUIT     2.225     0  04:40      2.83    1.00    1.00
  GQ54                 CONDUIT     0.261     0  05:00      1.32    0.22    0.66
  GQ55                 CONDUIT     0.195     0  05:00      1.05    0.13    0.62
  GQ56                 CONDUIT     1.922     0  05:12      4.01    1.05    1.00
  GQ57                 CONDUIT     0.371     0  05:00      1.04    0.24    0.67
  GQ58                 CONDUIT     0.772     0  05:00      2.17    0.24    0.67
  GQ59                 CONDUIT     1.203     0  04:24      2.39    1.00    1.00
  GQ60                 CONDUIT     1.270     0  05:00      0.96    0.31    0.70
  GQ61                 CONDUIT     0.168     0  05:00      0.44    0.02    0.55
  GQ62                 CONDUIT     0.351     0  05:00      0.54    0.04    0.56
  GQ63                 CONDUIT     0.800     0  05:00      1.11    0.02    0.55
  GQ64                 CONDUIT     0.057     0  05:00      1.15    0.04    0.23
  GQ65                 CONDUIT     0.024     0  05:00      0.30    0.04    0.33
  GQ66                 CONDUIT     0.100     0  05:00      0.60    0.03    0.56
  GQ67                 CONDUIT     0.525     0  05:00      0.46    0.36    1.00
  GQ68                 CONDUIT     0.469     0  05:00      0.90    0.15    0.63
  GQ69                 CONDUIT     0.907     0  05:00      2.43    0.32    0.70
  GQ70                 CONDUIT     0.320     0  05:00      7.03    0.05    0.15
  GQ71                 CONDUIT     0.389     0  05:00      5.14    0.09    0.21
  GQ72                 CONDUIT     1.728     0  05:00      5.07    0.41    0.45
  GQ73                 CONDUIT     1.080     0  05:00     11.28    0.07    0.18
  GQ74                 CONDUIT     0.205     0  05:00      1.20    0.04    0.27
  GQ75                 CONDUIT     0.243     0  05:00      0.50    0.07    0.59
  GQ76                 CONDUIT     1.637     0  05:00      5.38    0.35    0.41
  GQ77                 CONDUIT     0.000     0  00:00      0.00    0.00    0.19
  GQ78                 CONDUIT     0.753     0  05:00      2.85    0.82    0.88
  GQ79                 CONDUIT     0.230     0  05:00      1.08    0.49    0.72
  GQ80                 CONDUIT     0.256     0  05:00      0.97    0.42    0.88
  GQ81                 CONDUIT     0.521     0  01:55      1.84    3.30    1.00
  GQ82                 CONDUIT     0.348     0  05:00      1.74    0.24    0.67
  GQ83                 CONDUIT     0.376     0  05:00      2.60    0.24    0.51
  GQ84                 CONDUIT     0.765     0  05:00      3.23    0.61    0.78
  GQ85                 CONDUIT     0.194     0  05:00      0.82    0.34    0.78
  GQ86                 CONDUIT     0.103     0  05:00      0.61    0.04    0.57
  GQ87                 CONDUIT     0.037     0  05:00      0.22    0.05    0.58
  GQ88                 CONDUIT     0.252     0  05:00      1.27    0.22    0.66
  GQ89                 CONDUIT     0.208     0  05:00      1.02    0.27    0.68
  GQ90                 CONDUIT     0.212     0  05:00      1.08    0.21    0.66
  GQ91                 CONDUIT     0.178     0  05:00      0.90    0.22    0.66
  GQ92                 CONDUIT     0.422     0  05:00      1.67    0.61    0.50
  GQ93                 CONDUIT     0.446     0  05:00      1.38    0.38    0.62
  GQ94                 CONDUIT     0.830     0  05:00      2.02    0.98    0.79
  GQ95                 CONDUIT     0.116     0  05:00      0.40    0.03    0.56
  GQ96                 CONDUIT     0.376     0  05:00      1.25    0.64    0.58
  GQ97                 CONDUIT     0.210     0  05:00      1.80    0.38    0.43
  GQ98                 CONDUIT     0.201     0  05:00      0.93    0.29    0.72
  GQ99                 CONDUIT     0.381     0  05:00      0.74    0.02    0.55
  GQ100                CONDUIT     0.274     0  05:00      2.66    0.47    0.39
  GQ101                CONDUIT     0.189     0  05:00      1.01    0.14    0.63
  GQ102                CONDUIT     0.734     0  05:00      2.08    0.22    0.66
  GQ103                CONDUIT     0.361     0  05:00      1.55    0.55    0.77
  GQ104                CONDUIT     0.701     0  04:58      3.07    0.51    0.75
  GQ105                CONDUIT     0.624     0  01:46      1.24    1.98    1.00
  GQ106                CONDUIT     0.213     0  05:00      1.08    0.21    0.66
  GQ107                CONDUIT     0.820     0  05:00      3.31    0.74    0.82
  GQ108                CONDUIT     0.829     0  03:06      1.65    1.00    1.00
  GQ109                CONDUIT     0.154     0  05:00      1.20    0.21    0.47
  GQ110                CONDUIT     0.255     0  05:00      0.78    0.04    0.57
  GQ111                CONDUIT     0.229     0  05:00      1.17    0.21    0.66
  GQ112                CONDUIT     0.699     0  05:00      2.69    0.12    0.28
  GQ113                CONDUIT     0.387     0  05:00      3.39    0.29    0.42
  GQ114                CONDUIT     0.232     0  05:00      0.44    0.09    0.63
  GQ115                CONDUIT     0.100     0  05:00      0.85    0.01    0.16
  GQ116                CONDUIT     0.144     0  05:00      0.44    0.02    0.55
  GQ117                CONDUIT     0.511     0  05:00      4.00    0.32    0.30
  GQ118                CONDUIT     0.193     0  05:00      1.52    0.07    0.31
  GQ119                CONDUIT     2.119     0  04:58      4.29    0.92    0.96
  GQ120                CONDUIT     0.000     0  00:00      0.00    0.00    0.50
  GQ121                CONDUIT     0.705     0  05:00      1.40    0.50    1.00
  GQ122                CONDUIT     0.294     0  05:00      1.66    0.05    0.58
  GQ123                CONDUIT     0.197     0  05:00      1.31    0.09    0.60
  GQ124                CONDUIT     0.123     0  05:00      0.89    0.05    0.32
  GQ125                CONDUIT     0.245     0  05:00      1.20    0.28    0.68
  GQ126                CONDUIT     0.303     0  05:00      1.47    0.29    0.68
  GQ127                CONDUIT     0.722     0  05:00      1.67    0.92    0.84
  GQ128                CONDUIT     1.029     0  05:00      2.38    0.22    0.47
  GQ129                CONDUIT     1.313     0  04:34      2.61    1.00    1.00
  GQ130                CONDUIT     1.073     0  04:27      3.79    1.00    1.00
  GQ131                CONDUIT     0.590     0  05:00      2.39    0.68    0.82
  
  
  ***************************
  Flow Classification Summary
  ***************************
  
  -------------------------------------------------------------------------------------
                      Adjusted    ---------- Fraction of Time in Flow Class ---------- 
                       /Actual         Up    Down  Sub   Sup   Up    Down  Norm  Inlet 
  Conduit               Length    Dry  Dry   Dry   Crit  Crit  Crit  Crit  Ltd   Ctrl  
  -------------------------------------------------------------------------------------
  GQ1                     1.00   0.03  0.00  0.00  0.01  0.96  0.00  0.00  0.01  0.00
  GQ2                     1.00   0.03  0.00  0.00  0.03  0.94  0.00  0.00  0.89  0.00
  GQ3                     1.00   0.03  0.00  0.00  0.00  0.97  0.00  0.00  0.21  0.00
  GQ4                     1.00   0.03  0.00  0.00  0.97  0.00  0.00  0.00  0.36  0.00
  GQ5                     1.00   0.03  0.00  0.00  0.97  0.00  0.00  0.00  0.77  0.00
  GQ6                     1.00   0.03  0.00  0.00  0.97  0.00  0.00  0.00  0.89  0.00
  GQ7                     1.00   0.03  0.00  0.00  0.32  0.65  0.00  0.00  0.17  0.00
  GQ8                     1.00   0.03  0.00  0.00  0.97  0.00  0.00  0.00  0.88  0.00
  GQ9                     1.00   0.03  0.00  0.00  0.74  0.24  0.00  0.00  0.89  0.00
  GQ10                    1.00   0.03  0.00  0.00  0.68  0.29  0.00  0.00  0.40  0.00
  GQ11                    1.00   0.03  0.00  0.00  0.15  0.82  0.00  0.00  0.88  0.00
  GQ12                    1.00   0.03  0.00  0.00  0.96  0.01  0.00  0.00  0.89  0.00
  GQ13                    1.00   0.03  0.00  0.00  0.97  0.00  0.00  0.00  0.89  0.00
  GQ14                    1.00   0.03  0.00  0.00  0.97  0.00  0.00  0.00  0.00  0.00
  GQ15                    1.00   0.03  0.00  0.00  0.00  0.97  0.00  0.00  0.02  0.00
  GQ16                    1.00   0.03  0.00  0.00  0.00  0.97  0.00  0.00  0.00  0.00
  GQ17                    1.00   0.03  0.00  0.00  0.92  0.05  0.00  0.00  0.89  0.00
  GQ18                    1.00   0.03  0.00  0.00  0.77  0.20  0.00  0.00  0.04  0.00
  GQ19                    1.00   0.03  0.00  0.00  0.71  0.26  0.00  0.00  0.89  0.00
  GQ20                    1.00   0.03  0.00  0.00  0.97  0.00  0.00  0.00  0.89  0.00
  GQ21                    1.00   0.03  0.00  0.00  0.41  0.56  0.00  0.00  0.89  0.00
  GQ22                    1.00   0.03  0.00  0.00  0.00  0.97  0.00  0.00  0.89  0.00
  GQ23                    1.00   0.03  0.00  0.00  0.00  0.97  0.00  0.00  0.17  0.00
  GQ24                    1.00   0.03  0.00  0.00  0.97  0.00  0.00  0.00  0.89  0.00
  GQ25                    1.00   0.03  0.00  0.00  0.00  0.97  0.00  0.00  0.01  0.00
  GQ26                    1.00   0.03  0.00  0.00  0.00  0.97  0.00  0.00  0.86  0.00
  GQ27                    1.00   0.03  0.00  0.00  0.78  0.19  0.00  0.00  0.78  0.00
  GQ28                    1.00   0.03  0.00  0.00  0.97  0.00  0.00  0.00  0.88  0.00
  GQ29                    1.00   0.03  0.00  0.00  0.97  0.00  0.00  0.00  0.08  0.00
  GQ30                    1.00   0.03  0.00  0.00  0.95  0.02  0.00  0.00  0.06  0.00
  GQ31                    1.00   0.03  0.00  0.00  0.97  0.00  0.00  0.00  0.89  0.00
  GQ32                    1.00   0.03  0.00  0.00  0.00  0.97  0.00  0.00  0.02  0.00
  GQ33                    1.00   0.03  0.00  0.00  0.35  0.62  0.00  0.00  0.71  0.00
  GQ34                    1.00   0.03  0.00  0.00  0.97  0.00  0.00  0.00  0.89  0.00
  GQ35                    1.00   0.03  0.00  0.00  0.15  0.82  0.00  0.00  0.70  0.00
  GQ36                    1.00   0.03  0.00  0.00  0.00  0.97  0.00  0.00  0.86  0.00
  GQ37                    1.00   0.03  0.00  0.00  0.97  0.00  0.00  0.00  0.81  0.00
  GQ38                    1.00   0.03  0.00  0.00  0.97  0.00  0.00  0.00  0.89  0.00
  GQ39                    1.00   0.03  0.00  0.00  0.95  0.02  0.00  0.00  0.81  0.00
  GQ40                    1.00   0.03  0.00  0.00  0.01  0.96  0.00  0.00  0.89  0.00
  GQ41                    1.00   0.03  0.00  0.00  0.97  0.00  0.00  0.00  0.72  0.00
  GQ42                    1.00   0.03  0.00  0.00  0.97  0.00  0.00  0.00  0.62  0.00
  GQ43                    1.00   0.03  0.00  0.00  0.00  0.97  0.00  0.00  0.89  0.00
  GQ44                    1.00   0.03  0.00  0.00  0.97  0.00  0.00  0.00  0.31  0.00
  GQ45                    1.00   0.03  0.00  0.00  0.40  0.57  0.00  0.00  0.89  0.00
  GQ46                    1.00   0.03  0.00  0.00  0.69  0.28  0.00  0.00  0.52  0.00
  GQ47                    1.00   0.03  0.00  0.00  0.97  0.00  0.00  0.00  0.89  0.00
  GQ48                    1.00   0.03  0.00  0.00  0.97  0.00  0.00  0.00  0.89  0.00
  GQ49                    1.00   0.03  0.00  0.00  0.78  0.19  0.00  0.00  0.89  0.00
  GQ50                    1.00   0.03  0.00  0.00  0.97  0.00  0.00  0.00  0.89  0.00
  GQ51                    1.00   0.03  0.00  0.00  0.00  0.97  0.00  0.00  0.63  0.00
  GQ52                    1.00   0.03  0.00  0.00  0.97  0.00  0.00  0.00  0.84  0.00
  GQ53                    1.00   0.03  0.00  0.00  0.97  0.00  0.00  0.00  0.64  0.00
  GQ54                    1.00   0.03  0.00  0.00  0.97  0.00  0.00  0.00  0.89  0.00
  GQ55                    1.00   0.03  0.00  0.00  0.97  0.00  0.00  0.00  0.89  0.00
  GQ56                    1.00   0.03  0.00  0.00  0.19  0.78  0.00  0.00  0.61  0.00
  GQ57                    1.00   0.03  0.00  0.00  0.97  0.00  0.00  0.00  0.89  0.00
  GQ58                    1.00   0.03  0.00  0.00  0.93  0.04  0.00  0.00  0.89  0.00
  GQ59                    1.00   0.03  0.00  0.00  0.97  0.00  0.00  0.00  0.64  0.00
  GQ60                    1.00   0.03  0.00  0.00  0.97  0.00  0.00  0.00  0.11  0.00
  GQ61                    1.00   0.03  0.00  0.00  0.97  0.00  0.00  0.00  0.89  0.00
  GQ62                    1.00   0.03  0.00  0.00  0.97  0.00  0.00  0.00  0.89  0.00
  GQ63                    1.00   0.03  0.00  0.00  0.96  0.01  0.00  0.00  0.89  0.00
  GQ64                    1.00   0.03  0.00  0.00  0.12  0.85  0.00  0.00  0.89  0.00
  GQ65                    1.00   0.03  0.00  0.00  0.97  0.00  0.00  0.00  0.89  0.00
  GQ66                    1.00   0.03  0.00  0.00  0.96  0.01  0.00  0.00  0.89  0.00
  GQ67                    1.00   0.03  0.00  0.00  0.97  0.00  0.00  0.00  0.04  0.00
  GQ68                    1.00   0.03  0.00  0.00  0.97  0.00  0.00  0.00  0.89  0.00
  GQ69                    1.00   0.03  0.00  0.00  0.80  0.17  0.00  0.00  0.89  0.00
  GQ70                    1.00   0.03  0.00  0.00  0.00  0.97  0.00  0.00  0.00  0.00
  GQ71                    1.00   0.03  0.00  0.00  0.00  0.97  0.00  0.00  0.05  0.00
  GQ72                    1.00   0.03  0.00  0.00  0.00  0.97  0.00  0.00  0.31  0.00
  GQ73                    1.00   0.03  0.00  0.00  0.00  0.97  0.00  0.00  0.01  0.00
  GQ74                    1.00   0.03  0.00  0.00  0.90  0.07  0.00  0.00  0.89  0.00
  GQ75                    1.00   0.03  0.00  0.00  0.97  0.00  0.00  0.00  0.89  0.00
  GQ76                    1.00   0.03  0.00  0.00  0.00  0.97  0.00  0.00  0.16  0.00
  GQ77                    1.00   0.03  0.97  0.00  0.00  0.00  0.00  0.00  0.00  0.00
  GQ78                    1.00   0.03  0.00  0.00  0.69  0.28  0.00  0.00  0.73  0.00
  GQ79                    1.00   0.03  0.00  0.00  0.97  0.00  0.00  0.00  0.06  0.00
  GQ80                    1.00   0.03  0.00  0.00  0.97  0.00  0.00  0.00  0.46  0.00
  GQ81                    1.00   0.03  0.00  0.00  0.97  0.00  0.00  0.00  0.00  0.00
  GQ82                    1.00   0.03  0.00  0.00  0.95  0.02  0.00  0.00  0.89  0.00
  GQ83                    1.00   0.03  0.00  0.00  0.00  0.97  0.00  0.00  0.89  0.00
  GQ84                    1.00   0.03  0.00  0.00  0.08  0.89  0.00  0.00  0.89  0.00
  GQ85                    1.00   0.03  0.00  0.00  0.97  0.00  0.00  0.00  0.57  0.00
  GQ86                    1.00   0.03  0.00  0.00  0.96  0.01  0.00  0.00  0.89  0.00
  GQ87                    1.00   0.03  0.00  0.00  0.97  0.00  0.00  0.00  0.89  0.00
  GQ88                    1.00   0.03  0.00  0.00  0.97  0.00  0.00  0.00  0.89  0.00
  GQ89                    1.00   0.03  0.00  0.00  0.96  0.01  0.00  0.00  0.89  0.00
  GQ90                    1.00   0.03  0.00  0.00  0.95  0.02  0.00  0.00  0.89  0.00
  GQ91                    1.00   0.03  0.00  0.00  0.96  0.01  0.00  0.00  0.89  0.00
  GQ92                    1.00   0.03  0.00  0.00  0.85  0.12  0.00  0.00  0.00  0.00
  GQ93                    1.00   0.03  0.00  0.00  0.97  0.00  0.00  0.00  0.89  0.00
  GQ94                    1.00   0.03  0.00  0.00  0.36  0.61  0.00  0.00  0.01  0.00
  GQ95                    1.00   0.03  0.00  0.00  0.97  0.00  0.00  0.00  0.89  0.00
  GQ96                    1.00   0.03  0.00  0.00  0.97  0.00  0.00  0.00  0.55  0.00
  GQ97                    1.00   0.03  0.00  0.00  0.00  0.97  0.00  0.00  0.32  0.00
  GQ98                    1.00   0.03  0.00  0.00  0.97  0.00  0.00  0.00  0.68  0.00
  GQ99                    1.00   0.03  0.00  0.00  0.96  0.01  0.00  0.00  0.89  0.00
  GQ100                   1.00   0.03  0.00  0.00  0.00  0.97  0.00  0.00  0.01  0.00
  GQ101                   1.00   0.03  0.00  0.00  0.96  0.01  0.00  0.00  0.89  0.00
  GQ102                   1.00   0.03  0.00  0.00  0.95  0.02  0.00  0.00  0.89  0.00
  GQ103                   1.00   0.03  0.00  0.00  0.97  0.00  0.00  0.00  0.89  0.00
  GQ104                   1.00   0.03  0.00  0.00  0.64  0.33  0.00  0.00  0.89  0.00
  GQ105                   1.00   0.03  0.00  0.00  0.97  0.00  0.00  0.00  0.06  0.00
  GQ106                   1.00   0.03  0.00  0.00  0.96  0.01  0.00  0.00  0.89  0.00
  GQ107                   1.00   0.03  0.00  0.00  0.61  0.36  0.00  0.00  0.89  0.00
  GQ108                   1.00   0.03  0.00  0.00  0.97  0.00  0.00  0.00  0.09  0.00
  GQ109                   1.00   0.03  0.00  0.00  0.90  0.07  0.00  0.00  0.88  0.00
  GQ110                   1.00   0.03  0.00  0.00  0.96  0.01  0.00  0.00  0.89  0.00
  GQ111                   1.00   0.03  0.00  0.00  0.96  0.01  0.00  0.00  0.89  0.00
  GQ112                   1.00   0.03  0.00  0.00  0.00  0.97  0.00  0.00  0.87  0.00
  GQ113                   1.00   0.03  0.00  0.00  0.00  0.97  0.00  0.00  0.87  0.00
  GQ114                   1.00   0.03  0.00  0.00  0.97  0.00  0.00  0.00  0.07  0.00
  GQ115                   1.00   0.03  0.00  0.00  0.95  0.02  0.00  0.00  0.89  0.00
  GQ116                   1.00   0.03  0.00  0.00  0.97  0.00  0.00  0.00  0.89  0.00
  GQ117                   1.00   0.03  0.00  0.00  0.00  0.97  0.00  0.00  0.01  0.00
  GQ118                   1.00   0.03  0.00  0.00  0.18  0.79  0.00  0.00  0.89  0.00
  GQ119                   1.00   0.03  0.00  0.00  0.57  0.40  0.00  0.00  0.69  0.00
  GQ120                   1.00   0.03  0.05  0.00  0.92  0.00  0.00  0.00  0.00  0.00
  GQ121                   1.00   0.03  0.00  0.00  0.96  0.01  0.00  0.00  0.07  0.00
  GQ122                   1.00   0.03  0.00  0.00  0.93  0.04  0.00  0.00  0.89  0.00
  GQ123                   1.00   0.03  0.00  0.00  0.93  0.04  0.00  0.00  0.89  0.00
  GQ124                   1.00   0.03  0.00  0.00  0.96  0.01  0.00  0.00  0.89  0.00
  GQ125                   1.00   0.03  0.00  0.00  0.96  0.01  0.00  0.00  0.89  0.00
  GQ126                   1.00   0.03  0.00  0.00  0.96  0.01  0.00  0.00  0.89  0.00
  GQ127                   1.00   0.03  0.00  0.00  0.97  0.00  0.00  0.00  0.71  0.00
  GQ128                   1.00   0.03  0.00  0.00  0.06  0.91  0.00  0.00  0.85  0.00
  GQ129                   1.00   0.03  0.00  0.00  0.97  0.00  0.00  0.00  0.39  0.00
  GQ130                   1.00   0.03  0.00  0.00  0.67  0.30  0.00  0.00  0.39  0.00
  GQ131                   1.00   0.03  0.00  0.00  0.81  0.16  0.00  0.00  0.78  0.00
  
  
  *************************
  Conduit Surcharge Summary
  *************************
  
  ----------------------------------------------------------------------------
                                                           Hours        Hours 
                         --------- Hours Full --------   Above Full   Capacity
  Conduit                Both Ends  Upstream  Dnstream   Normal Flow   Limited
  ----------------------------------------------------------------------------
  GQ4                         2.95      2.95      7.30      0.01         0.01
  GQ5                         0.01      0.01      7.24      0.01         0.01
  GQ7                         1.67      1.67      2.24      0.01         0.01
  GQ8                         0.01      0.01      1.67      0.01         0.01
  GQ9                         0.01      0.01      7.47      0.01         0.01
  GQ10                        4.22      4.22      7.53      0.09         0.01
  GQ12                        0.01      0.01      7.13      0.01         0.01
  GQ13                        0.01      0.01      2.46      0.01         0.01
  GQ18                        0.01      0.01      6.51      6.87         0.01
  GQ24                        0.01      0.01      7.38      0.01         0.01
  GQ27                        0.01      0.01      7.15      0.01         0.01
  GQ28                        0.01      0.01      7.26      0.01         0.01
  GQ29                        7.04      7.04      7.26      0.01         0.01
  GQ30                        7.15      7.15      7.32      0.01         0.01
  GQ31                        0.01      0.01      7.55      0.01         0.01
  GQ32                        0.01      0.05      0.01      0.01         0.01
  GQ33                        0.05      0.05      7.55      0.01         0.01
  GQ34                        0.01      0.01      0.05      0.01         0.01
  GQ35                        0.01      0.01      0.05      0.01         0.01
  GQ37                        0.01      0.01      7.46      0.01         0.01
  GQ38                        0.01      0.01      7.46      0.01         0.01
  GQ39                        0.01      0.01      7.13      0.01         0.01
  GQ41                        0.01      0.01      7.24      0.01         0.01
  GQ42                        1.63      1.63      7.29      0.01         0.01
  GQ43                        0.01      0.01      1.63      0.01         0.01
  GQ44                        4.04      4.04      6.51      0.01         0.01
  GQ45                        0.01      0.01      1.93      0.01         0.01
  GQ46                        1.93      1.93      4.04      0.01         0.01
  GQ47                        0.01      0.01      7.33      0.01         0.01
  GQ48                        0.01      0.01      7.38      0.01         0.01
  GQ49                        0.01      0.01      7.38      0.01         0.01
  GQ52                        0.01      0.01      7.04      0.01         0.01
  GQ53                        1.38      1.38      7.30      0.01         0.01
  GQ54                        0.01      0.01      7.41      0.01         0.01
  GQ55                        0.01      0.01      7.41      0.01         0.01
  GQ56                        1.00      1.00      1.67      0.23         0.11
  GQ57                        0.01      0.01      1.00      0.01         0.01
  GQ58                        0.01      0.01      7.18      0.01         0.01
  GQ59                        1.63      1.63      7.18      0.01         0.01
  GQ60                        0.01      0.01      1.93      0.01         0.01
  GQ61                        0.01      0.01      6.72      0.01         0.01
  GQ62                        0.01      0.01      6.83      0.01         0.01
  GQ63                        0.01      0.01      6.89      0.01         0.01
  GQ66                        0.01      0.01      6.92      0.01         0.01
  GQ67                        6.75      6.75      6.83      0.01         0.01
  GQ68                        0.01      0.01      7.06      0.01         0.01
  GQ69                        0.01      0.01      7.32      0.01         0.01
  GQ75                        0.01      0.01      7.06      0.01         0.01
  GQ78                        0.01      0.01      7.43      0.01         0.01
  GQ79                        0.01      0.01      7.43      0.01         0.01
  GQ80                        0.01      0.01      6.95      0.01         0.01
  GQ81                        6.84      6.95      7.13      6.63         2.68
  GQ82                        0.01      0.01      7.13      0.01         0.01
  GQ84                        0.01      0.01      1.76      0.01         0.01
  GQ85                        0.01      0.01      7.60      0.01         0.01
  GQ86                        0.01      0.01      7.35      0.01         0.01
  GQ87                        0.01      0.01      7.35      0.01         0.01
  GQ88                        0.01      0.01      7.37      0.01         0.01
  GQ89                        0.01      0.01      7.13      0.01         0.01
  GQ90                        0.01      0.01      7.02      0.01         0.01
  GQ91                        0.01      0.01      7.21      0.01         0.01
  GQ95                        0.01      0.01      7.45      0.01         0.01
  GQ98                        0.01      0.01      7.31      0.01         0.01
  GQ99                        0.01      0.01      6.87      0.01         0.01
  GQ101                       0.01      0.01      7.21      0.01         0.01
  GQ102                       0.01      0.01      7.27      0.01         0.01
  GQ103                       0.01      0.01      7.34      0.01         0.01
  GQ104                       0.01      0.01      7.34      0.01         0.01
  GQ105                       7.22      7.22      7.27      6.82         0.01
  GQ106                       0.01      0.01      7.25      0.01         0.01
  GQ107                       0.01      0.01      7.25      0.01         0.01
  GQ108                       6.55      6.55      7.22      0.01         0.01
  GQ110                       0.01      0.01      7.06      0.01         0.01
  GQ111                       0.01      0.01      7.21      0.01         0.01
  GQ114                       0.01      0.01      7.39      0.01         0.01
  GQ116                       0.01      0.01      7.36      0.01         0.01
  GQ119                       0.01      0.01      7.37      0.01         0.01
  GQ120                       0.01      0.01      7.33      0.01         0.01
  GQ121                       7.25      7.25      7.37      0.01         0.01
  GQ122                       0.01      0.01      7.25      0.01         0.01
  GQ123                       0.01      0.01      7.26      0.01         0.01
  GQ125                       0.01      0.01      7.21      0.01         0.01
  GQ126                       0.01      0.01      7.21      0.01         0.01
  GQ129                       2.24      2.24      7.38      0.01         0.01
  GQ130                       2.45      2.45      7.66      0.01         0.01
  GQ131                       0.01      0.01      7.57      0.01         0.01
  

  Analysis begun on:  Sat Mar 25 16:18:20 2023
  Analysis ended on:  Sat Mar 25 16:18:22 2023
  Total elapsed time: 00:00:02