
  OWA STORM WATER MANAGEMENT MODEL - VERSION v5.1.14 (OWA 2022-07-31)
  --------------------------------------------------------------

  INP file created by DSDAConvertToSwmmTools 
  version 0.0.1 EcoVista 
  Title/Notes: 
  
  
  *********************************************************
  NOTE: The summary statistics displayed in this report are
  based on results found at every computational time step,  
  not just on results from each reporting time step.
  *********************************************************
  
  ****************
  Analysis Options
  ****************
  Flow Units ............... CMS
  Process Models:
    Rainfall/Runoff ........ YES
    RDII ................... NO
    Snowmelt ............... NO
    Groundwater ............ NO
    Flow Routing ........... YES
    Ponding Allowed ........ NO
    Water Quality .......... NO
  Infiltration Method ...... GREEN_AMPT
  Flow Routing Method ...... DYNWAVE
  Surcharge Method ......... EXTRAN
  Starting Date ............ 07/15/2020 00:00:00
  Ending Date .............. 07/15/2020 08:00:00
  Antecedent Dry Days ...... 0.0
  Report Time Step ......... 00:30:00
  Wet Time Step ............ 00:05:00
  Dry Time Step ............ 01:00:00
  Routing Time Step ........ 30.00 sec
  Variable Time Step ....... YES
  Maximum Trials ........... 8
  Number of Threads ........ 1
  Head Tolerance ........... 0.001500 m
  
  
  **************************        Volume         Depth
  Runoff Quantity Continuity     hectare-m            mm
  **************************     ---------       -------
  Total Precipitation ......       224.604        56.200
  Evaporation Loss .........         2.530         0.633
  Infiltration Loss ........        60.024        15.019
  Surface Runoff ...........       155.126        38.815
  Final Storage ............         7.286         1.823
  Continuity Error (%) .....        -0.161
  
  
  **************************        Volume        Volume
  Flow Routing Continuity        hectare-m      10^6 ltr
  **************************     ---------     ---------
  Dry Weather Inflow .......         0.000         0.000
  Wet Weather Inflow .......       155.027      1550.283
  Groundwater Inflow .......         0.000         0.000
  RDII Inflow ..............         0.000         0.000
  External Inflow ..........         0.000         0.000
  External Outflow .........        11.415       114.149
  Flooding Loss ............       142.177      1421.787
  Evaporation Loss .........         0.000         0.000
  Exfiltration Loss ........         0.000         0.000
  Initial Stored Volume ....         0.000         0.000
  Final Stored Volume ......         1.314        13.140
  Continuity Error (%) .....         0.078
  
  
  *************************
  Highest Continuity Errors
  *************************
  Node jd51 (3.61%)
  Node jd59 (3.03%)
  Node jd31 (3.01%)
  Node jd64 (2.76%)
  Node jd41 (2.64%)
  
  
  ***************************
  Time-Step Critical Elements
  ***************************
  Link GQ73 (85.04%)
  
  
  ********************************
  Highest Flow Instability Indexes
  ********************************
  Link GQ67 (11)
  Link GQ96 (11)
  Link GQ92 (8)
  Link GQ93 (8)
  Link GQ3 (7)
  
  
  *************************
  Routing Time Step Summary
  *************************
  Minimum Time Step           :     0.97 sec
  Average Time Step           :     8.74 sec
  Maximum Time Step           :    30.00 sec
  Percent in Steady State     :     0.00
  Average Iterations per Step :     4.33
  Percent Not Converging      :    21.73
  
  
  ***************************
  Subcatchment Runoff Summary
  ***************************
  
  ------------------------------------------------------------------------------------------------------------------------------
                            Total      Total      Total      Total     Imperv       Perv      Total       Total     Peak  Runoff
                           Precip      Runon       Evap      Infil     Runoff     Runoff     Runoff      Runoff   Runoff   Coeff
  Subcatchment                 mm         mm         mm         mm         mm         mm         mm    10^6 ltr      CMS
  ------------------------------------------------------------------------------------------------------------------------------
  1                         56.20       0.00       0.38      31.49      23.44       0.00      23.44        9.28     1.39   0.417
  2                         56.20       0.00       0.68      11.96      41.48       0.00      41.48       37.51     5.69   0.738
  3                         56.20       0.00       0.71      10.25      43.38       0.00      43.38       17.36     2.61   0.772
  4                         56.20       0.00       0.73       8.81      44.90       0.00      44.90        3.77     0.57   0.799
  5                         56.20       0.00       0.64      14.31      39.69       0.00      39.69        4.91     0.74   0.706
  6                         56.20       0.00       0.62      16.11      38.05       0.00      38.05        3.53     0.53   0.677
  7                         56.20       0.00       0.64      14.38      39.34       0.00      39.34       17.15     2.59   0.700
  8                         56.20       0.00       0.82       3.15      50.04       0.00      50.04        6.97     1.05   0.890
  9                         56.20       0.00       0.84       1.57      51.59       0.00      51.59        6.04     0.91   0.918
  10                        56.20       0.00       0.72       9.14      44.45       0.00      44.45       10.01     1.51   0.791
  11                        56.20       0.00       0.78       5.37      47.89       0.00      47.89       23.74     3.58   0.852
  12                        56.20       0.00       0.62      16.16      37.82       0.00      37.82       18.46     2.78   0.673
  13                        56.20       0.00       0.77       6.06      47.27       0.00      47.27       21.38     3.23   0.841
  14                        56.20       0.00       0.77       6.13      47.33       0.00      47.33        8.93     1.34   0.842
  15                        56.20       0.00       0.71       9.88      43.72       0.00      43.72       14.78     2.23   0.778
  16                        56.20       0.00       0.74       8.16      45.30       0.00      45.30       13.38     2.02   0.806
  17                        56.20       0.00       0.69      11.22      42.46       0.00      42.46       17.77     2.68   0.755
  18                        56.20       0.00       0.80       4.42      48.78       0.00      48.78       20.14     3.04   0.868
  19                        56.20       0.00       0.79       4.62      48.56       0.00      48.56       10.92     1.65   0.864
  20                        56.20       0.00       0.79       4.93      48.08       0.00      48.08       25.80     3.91   0.856
  21                        56.20       0.00       0.84       1.65      51.37       0.00      51.37       16.12     2.43   0.914
  22                        56.20       0.00       0.82       2.65      50.39       0.00      50.39        6.20     0.94   0.897
  23                        56.20       0.00       0.76       6.87      46.40       0.00      46.40       26.57     4.02   0.826
  24                        56.20       0.00       0.73       8.58      44.78       0.00      44.78        7.94     1.20   0.797
  25                        56.20       0.00       0.78       5.27      48.09       0.00      48.09        9.74     1.47   0.856
  26                        56.20       0.00       0.67      12.82      40.72       0.00      40.72       14.29     2.16   0.724
  27                        56.20       0.00       0.80       4.21      48.77       0.00      48.77       20.61     3.12   0.868
  28                        56.20       0.00       0.82       3.10      49.91       0.00      49.91       23.60     3.57   0.888
  29                        56.20       0.00       0.73       8.72      44.89       0.00      44.89       10.48     1.58   0.799
  30                        56.20       0.00       0.83       1.90      51.42       0.00      51.42        3.69     0.55   0.915
  31                        56.20       0.00       0.85       1.18      51.87       0.00      51.87       11.43     1.72   0.923
  32                        56.20       0.00       0.83       2.50      50.58       0.00      50.58       21.86     3.30   0.900
  33                        56.20       0.00       0.84       1.83      51.16       0.00      51.16       18.03     2.72   0.910
  34                        56.20       0.00       0.78       5.69      47.61       0.00      47.61       13.96     2.11   0.847
  35                        56.20       0.00       0.80       4.24      48.96       0.00      48.96       20.31     3.07   0.871
  36                        56.20       0.00       0.66      13.39      40.46       0.00      40.46       15.92     2.40   0.720
  37                        56.20       0.00       0.82       3.03      50.08       0.00      50.08       11.11     1.68   0.891
  38                        56.20       0.00       0.77       6.36      47.01       0.00      47.01       17.93     2.70   0.836
  39                        56.20       0.00       0.69      11.17      42.53       0.00      42.53       17.96     2.70   0.757
  40                        56.20       0.00       0.77       6.08      47.26       0.00      47.26       10.81     1.63   0.841
  41                        56.20       0.00       0.79       4.95      48.42       0.00      48.42        9.55     1.44   0.862
  42                        56.20       0.00       0.79       5.00      48.08       0.00      48.08       11.88     1.80   0.856
  43                        56.20       0.00       0.66      13.14      40.52       0.00      40.52       32.03     4.84   0.721
  44                        56.20       0.00       0.71      10.25      43.22       0.00      43.22       20.89     3.16   0.769
  45                        56.20       0.00       0.66      13.03      40.68       0.00      40.68       29.43     4.44   0.724
  46                        56.20       0.00       0.64      14.52      39.45       0.00      39.45       19.72     2.96   0.702
  47                        56.20       0.00       0.67      12.43      41.24       0.00      41.24       48.08     7.26   0.734
  48                        56.20       0.00       0.80       3.89      49.03       0.00      49.03       28.46     4.32   0.872
  49                        56.20       0.00       0.74       8.32      44.90       0.00      44.90       30.40     4.61   0.799
  50                        56.20       0.00       0.82       3.16      49.52       0.00      49.52       19.46     2.96   0.881
  51                        56.20       0.00       0.78       5.46      47.44       0.00      47.44        8.88     1.35   0.844
  52                        56.20       0.00       0.38      31.53      23.46       0.00      23.46       24.08     3.60   0.418
  53                        56.20       0.00       0.55      20.47      33.87       0.00      33.87       36.07     5.41   0.603
  54                        56.20       0.00       0.68      12.10      41.64       0.00      41.64       10.15     1.53   0.741
  55                        56.20       0.00       0.39      30.95      24.00       0.00      24.00       18.94     2.83   0.427
  56                        56.20       0.00       0.15      46.68       9.14       0.00       9.14        7.45     1.10   0.163
  57                        56.20       0.00       0.77       6.26      46.84       0.00      46.84       38.91     5.90   0.833
  58                        56.20       0.00       0.71       9.93      43.67       0.00      43.67        7.19     1.08   0.777
  59                        56.20       0.00       0.69      11.03      42.80       0.00      42.80        5.45     0.82   0.762
  60                        56.20       0.00       0.26      39.27      16.16       0.00      16.16        4.63     0.69   0.288
  61                        56.20       0.00       0.40      29.87      24.91       0.00      24.91        9.39     1.41   0.443
  62                        56.20       0.00       0.56      19.55      34.54       0.00      34.54       40.47     6.11   0.615
  63                        56.20       0.00       0.77       6.19      46.76       0.00      46.76       90.43    13.75   0.832
  64                        56.20       0.00       0.57      18.90      35.30       0.00      35.30        7.58     1.14   0.628
  65                        56.20       0.00       0.78       5.48      47.47       0.00      47.47       31.93     4.85   0.845
  66                        56.20       0.00       0.61      16.26      37.58       0.00      37.58        9.58     1.45   0.669
  67                        56.20       0.00       0.57      18.87      35.38       0.00      35.38       11.44     1.72   0.630
  68                        56.20       0.00       0.69      11.42      42.33       0.00      42.33        4.70     0.71   0.753
  69                        56.20       0.00       0.40      29.91      25.07       0.00      25.07        8.02     1.20   0.446
  70                        56.20       0.00       0.57      19.21      34.92       0.00      34.92       28.73     4.33   0.621
  71                        56.20       0.00       0.70      10.50      43.18       0.00      43.18        5.30     0.80   0.768
  72                        56.20       0.00       0.74       8.02      45.51       0.00      45.51        5.67     0.85   0.810
  73                        56.20       0.00       0.67      12.55      41.34       0.00      41.34        6.87     1.03   0.736
  74                        56.20       0.00       0.64      14.60      39.39       0.00      39.39        8.48     1.27   0.701
  75                        56.20       0.00       0.71       9.95      43.71       0.00      43.71        6.30     0.95   0.778
  76                        56.20       0.00       0.75       7.55      46.01       0.00      46.01        4.46     0.67   0.819
  77                        56.20       0.00       0.80       4.32      48.95       0.00      48.95        5.30     0.80   0.871
  78                        56.20       0.00       0.77       6.15      47.20       0.00      47.20        5.19     0.78   0.840
  79                        56.20       0.00       0.34      34.25      20.90       0.00      20.90       22.17     3.31   0.372
  80                        56.20       0.00       0.64      14.83      38.95       0.00      38.95       24.38     3.68   0.693
  81                        56.20       0.00       0.65      14.18      39.54       0.00      39.54       17.24     2.60   0.704
  82                        56.20       0.00       0.62      15.96      37.88       0.00      37.88       34.73     5.25   0.674
  83                        56.20       0.00       0.77       5.90      47.52       0.00      47.52        5.81     0.87   0.846
  84                        56.20       0.00       0.73       8.73      44.78       0.00      44.78        5.35     0.81   0.797
  85                        56.20       0.00       0.86       0.43      52.71       0.00      52.71        4.90     0.74   0.938
  86                        56.20       0.00       0.79       4.74      48.56       0.00      48.56        7.15     1.08   0.864
  87                        56.20       0.00       0.85       1.20      51.79       0.00      51.79        6.81     1.03   0.922
  88                        56.20       0.00       0.76       7.01      46.49       0.00      46.49        4.45     0.67   0.827
  89                        56.20       0.00       0.79       4.52      48.81       0.00      48.81        9.40     1.42   0.869
  90                        56.20       0.00       0.86       0.01      53.19       0.00      53.19        0.61     0.09   0.946
  91                        56.20       0.00       0.72       9.42      43.89       0.00      43.89        9.57     1.45   0.781
  92                        56.20       0.00       0.80       4.37      48.91       0.00      48.91        6.11     0.92   0.870
  93                        56.20       0.00       0.65      13.96      39.86       0.00      39.86       20.40     3.07   0.709
  94                        56.20       0.00       0.58      18.20      36.12       0.00      36.12        2.53     0.38   0.643
  95                        56.20       0.00       0.86       0.06      53.04       0.00      53.04        1.16     0.17   0.944
  96                        56.20       0.00       0.70      10.88      42.86       0.00      42.86        5.24     0.79   0.763
  97                        56.20       0.00       0.85       1.19      51.92       0.00      51.92        5.16     0.78   0.924
  98                        56.20       0.00       0.70      10.62      43.13       0.00      43.13        5.32     0.80   0.767
  99                        56.20       0.00       0.35      33.62      21.52       0.00      21.52        7.99     1.19   0.383
  100                       56.20       0.00       0.39      31.10      23.92       0.00      23.92        6.14     0.92   0.426
  101                       56.20       0.00       0.40      30.48      24.45       0.00      24.45       11.98     1.79   0.435
  102                       56.20       0.00       0.64      14.29      39.60       0.00      39.60        9.65     1.45   0.705
  103                       56.20       0.00       0.22      42.19      13.42       0.00      13.42        4.88     0.72   0.239
  104                       56.20       0.00       0.15      46.72       9.07       0.00       9.07        8.79     1.31   0.161
  105                       56.20       0.00       0.71       9.98      43.73       0.00      43.73        5.72     0.86   0.778
  106                       56.20       0.00       0.38      31.16      23.83       0.00      23.83        5.81     0.87   0.424
  
  
  ******************
  Node Depth Summary
  ******************
  
  ---------------------------------------------------------------------------------
                                 Average  Maximum  Maximum  Time of Max    Reported
                                   Depth    Depth      HGL   Occurrence   Max Depth
  Node                 Type       Meters   Meters   Meters  days hr:min      Meters
  ---------------------------------------------------------------------------------
  jd1                  JUNCTION     0.18     0.29   273.29     0  06:00        0.29
  jd2                  JUNCTION     1.71     3.00   270.00     0  04:21        3.00
  jd3                  JUNCTION     2.51     3.00   266.00     0  04:14        3.00
  jd4                  JUNCTION     2.15     3.00   270.00     0  04:17        3.00
  jd5                  JUNCTION     0.13     0.21   274.21     0  06:00        0.21
  jd6                  JUNCTION     0.17     0.29   275.29     0  06:00        0.29
  jd7                  JUNCTION     0.46     0.73   264.83     0  06:00        0.73
  jd8                  JUNCTION     2.23     3.00   267.00     0  04:14        3.00
  jd9                  JUNCTION     2.11     3.00   268.00     0  04:15        3.00
  jd10                 JUNCTION     2.53     3.00   273.00     0  04:11        3.00
  jd11                 JUNCTION     0.15     0.25   282.25     0  06:00        0.25
  jd12                 JUNCTION     2.53     3.00   272.00     0  04:11        3.00
  jd13                 JUNCTION     0.20     0.35   289.35     0  06:00        0.35
  jd14                 JUNCTION     1.65     3.00   283.00     0  04:20        3.00
  jd15                 JUNCTION     0.66     3.00   281.00     0  05:24        1.81
  jd16                 JUNCTION     0.95     3.00   277.00     0  05:07        2.54
  jd17                 JUNCTION     2.32     3.00   278.80     0  04:16        3.00
  jd18                 JUNCTION     1.65     3.00   282.00     0  04:23        3.00
  jd19                 JUNCTION     1.94     3.00   270.00     0  04:15        3.00
  jd20                 JUNCTION     0.33     0.58   273.58     0  06:00        0.58
  jd21                 JUNCTION     2.51     3.00   273.00     0  04:14        3.00
  jd22                 JUNCTION     2.15     3.00   275.00     0  04:15        3.00
  jd23                 JUNCTION     1.53     3.00   281.00     0  04:26        3.00
  jd24                 JUNCTION     0.22     0.38   285.38     0  06:00        0.38
  jd25                 JUNCTION     1.44     3.00   282.00     0  04:29        3.00
  jd26                 JUNCTION     1.67     3.00   288.00     0  04:20        3.00
  jd27                 JUNCTION     1.46     3.00   294.00     0  04:29        3.00
  jd28                 JUNCTION     2.53     3.00   290.00     0  04:10        3.00
  jd29                 JUNCTION     0.15     0.25   299.25     0  06:00        0.25
  jd30                 JUNCTION     0.19     0.30   290.30     0  06:00        0.30
  jd31                 JUNCTION     1.61     3.00   275.00     0  04:19        2.72
  jd32                 JUNCTION     2.52     3.00   275.00     0  04:12        3.00
  jd33                 JUNCTION     0.32     0.55   289.55     0  06:00        0.55
  jd34                 JUNCTION     1.57     3.00   297.00     0  04:19        3.00
  jd35                 JUNCTION     2.54     3.00   292.00     0  04:08        3.00
  jd36                 JUNCTION     1.79     3.00   302.00     0  04:19        3.00
  jd37                 JUNCTION     1.77     3.00   306.00     0  04:17        3.00
  jd38                 JUNCTION     1.55     3.00   300.00     0  04:27        3.00
  jd39                 JUNCTION     2.51     3.00   297.00     0  04:14        3.00
  jd40                 JUNCTION     1.96     3.00   302.00     0  04:21        3.00
  jd41                 JUNCTION     2.47     3.00   296.00     0  04:20        3.00
  jd42                 JUNCTION     0.76     3.00   308.00     0  05:22        2.84
  jd43                 JUNCTION     1.88     3.00   300.00     0  04:15        3.00
  jd44                 JUNCTION     1.92     3.00   286.00     0  04:19        3.00
  jd45                 JUNCTION     2.51     3.00   282.00     0  04:14        3.00
  jd46                 JUNCTION     1.46     3.00   278.00     0  04:35        3.00
  jd47                 JUNCTION     0.24     0.40   315.40     0  06:00        0.40
  jd48                 JUNCTION     0.18     0.30   325.30     0  06:00        0.30
  jd49                 JUNCTION     1.44     3.00   292.00     0  04:33        3.00
  jd50                 JUNCTION     2.53     3.00   278.00     0  04:10        3.00
  jd51                 JUNCTION     2.47     3.00   313.00     0  04:20        3.00
  jd52                 JUNCTION     1.26     3.00   326.00     0  04:24        2.10
  jd53                 JUNCTION     1.76     3.00   325.00     0  04:22        3.00
  jd54                 JUNCTION     0.71     3.00   329.00     0  05:21        1.75
  jd55                 JUNCTION     2.09     3.00   325.00     0  04:18        3.00
  jd56                 JUNCTION     0.37     0.71   327.71     0  06:00        0.71
  jd59                 JUNCTION     2.46     3.00   320.80     0  04:20        3.00
  jd60                 JUNCTION     2.53     3.00   319.00     0  04:10        3.00
  jd61                 JUNCTION     0.26     0.47   329.47     0  06:00        0.47
  jd62                 JUNCTION     0.11     0.21   335.21     0  06:00        0.21
  jd63                 JUNCTION     0.11     0.18   324.18     0  06:00        0.18
  jd64                 JUNCTION     2.39     3.00   321.00     0  04:20        3.00
  jd65                 JUNCTION     2.28     3.00   307.00     0  04:11        3.00
  jd66                 JUNCTION     2.52     3.00   304.00     0  04:12        3.00
  jd69                 JUNCTION     1.01     3.00   336.00     0  05:06        3.00
  jd79                 JUNCTION     2.50     3.00   274.00     0  04:10        3.00
  jd80                 JUNCTION     2.36     3.00   279.00     0  04:11        3.00
  jd81                 JUNCTION     0.26     0.46   288.46     0  06:00        0.46
  jd83                 JUNCTION     2.55     3.00   323.00     0  04:07        3.00
  jd84                 JUNCTION     1.60     3.00   326.00     0  04:16        3.00
  jd85                 JUNCTION     2.53     3.00   324.00     0  04:10        3.00
  jd87                 JUNCTION     2.53     3.00   322.00     0  04:11        3.00
  jd89                 JUNCTION     0.96     3.00   327.00     0  05:05        3.00
  jd90                 JUNCTION     0.24     0.42   328.42     0  06:00        0.42
  jd92                 JUNCTION     0.60     3.00   329.00     0  05:04        1.69
  jd93                 JUNCTION     1.78     3.00   327.00     0  04:20        3.00
  jd94                 JUNCTION     1.28     3.00   329.20     0  04:23        2.37
  jd95                 JUNCTION     1.55     3.00   330.00     0  04:20        2.90
  jd96                 JUNCTION     2.54     3.00   308.00     0  04:08        3.00
  jd97                 JUNCTION     1.60     3.00   330.20     0  04:20        3.00
  jd98                 JUNCTION     0.97     2.74   331.74     0  06:00        2.74
  jd99                 JUNCTION     2.52     3.00   327.00     0  04:12        3.00
  jd101                JUNCTION     0.16     0.26   321.26     0  06:00        0.26
  jd102                JUNCTION     1.52     3.00   327.00     0  04:24        3.00
  jd103                JUNCTION     0.18     0.31   318.31     0  06:00        0.31
  jd106                JUNCTION     2.49     3.00   287.00     0  04:16        3.00
  jd107                JUNCTION     0.34     0.58   332.58     0  06:00        0.58
  jd108                JUNCTION     1.31     2.52   328.52     0  04:10        1.87
  jd109                JUNCTION     0.78     3.00   346.00     0  05:18        2.96
  jd110                JUNCTION     2.54     3.00   327.00     0  04:10        3.00
  jd111                JUNCTION     0.11     0.19   344.19     0  06:00        0.19
  jd112                JUNCTION     0.14     0.23   334.23     0  06:00        0.23
  jd113                JUNCTION     0.16     0.27   348.27     0  06:00        0.27
  jd114                JUNCTION     2.52     3.00   317.00     0  04:13        3.00
  jd117                JUNCTION     1.93     3.00   319.00     0  04:15        3.00
  jd118                JUNCTION     0.15     0.25   330.25     0  06:00        0.25
  jd120                JUNCTION     1.11     3.00   330.00     0  04:35        3.00
  jd121                JUNCTION     0.95     3.00   323.00     0  05:06        3.00
  jd122                JUNCTION     2.51     3.00   276.00     0  04:13        3.00
  jd123                JUNCTION     2.50     3.00   276.20     0  04:15        3.00
  jd124                JUNCTION     2.56     3.00   271.00     0  04:06        3.00
  jd125                JUNCTION     2.08     3.00   278.00     0  04:17        3.00
  jd126                JUNCTION     2.54     3.00   275.00     0  04:08        3.00
  jd135                JUNCTION     0.45     2.75   291.75     0  05:11        1.25
  jd136                JUNCTION     1.40     3.00   344.00     0  04:31        3.00
  psk1                 OUTFALL      0.14     0.22   279.22     0  06:00        0.22
  psk2                 OUTFALL      0.19     0.29   270.29     0  06:00        0.29
  psk3                 OUTFALL      0.59     1.00   272.00     0  04:40        1.00
  psk4                 OUTFALL      0.00     0.12   280.12     0  05:24        0.00
  psk5                 OUTFALL      0.18     0.29   263.29     0  06:00        0.29
  psk6                 OUTFALL      0.13     0.21   259.21     0  06:00        0.21
  psk7                 OUTFALL      0.46     0.73   262.73     0  06:00        0.73
  psk8                 OUTFALL      0.00     0.00   317.00     0  00:00        0.00
  
  
  *******************
  Node Inflow Summary
  *******************
  
  -------------------------------------------------------------------------------------------------
                                  Maximum  Maximum                  Lateral       Total        Flow
                                  Lateral    Total  Time of Max      Inflow      Inflow     Balance
                                   Inflow   Inflow   Occurrence      Volume      Volume       Error
  Node                 Type           CMS      CMS  days hr:min    10^6 ltr    10^6 ltr     Percent
  -------------------------------------------------------------------------------------------------
  jd1                  JUNCTION     1.391    1.780     0  06:00        9.27        12.5       0.076
  jd2                  JUNCTION     2.165    2.789     0  06:00        14.3        18.7       0.137
  jd3                  JUNCTION     2.593    4.311     0  06:00        17.1          34       1.143
  jd4                  JUNCTION     3.124    3.434     0  06:00        20.6        22.8       0.176
  jd5                  JUNCTION     0.909    1.328     0  06:00        6.03        9.25       0.013
  jd6                  JUNCTION     1.051    1.051     0  06:00        6.96        6.96       0.023
  jd7                  JUNCTION     0.530    3.692     0  06:00        3.53        29.1       0.163
  jd8                  JUNCTION     0.737    1.683     0  06:00        4.91        15.4       1.159
  jd9                  JUNCTION     0.566    1.633     0  06:00        3.77        14.9       0.196
  jd10                 JUNCTION     1.508    1.897     0  06:00          10        12.6       0.780
  jd11                 JUNCTION     2.227    2.227     0  06:00        14.8        14.8       0.011
  jd12                 JUNCTION     1.678    3.781     0  06:00        11.1        24.8       0.553
  jd13                 JUNCTION     3.040    3.040     0  06:00        20.1        20.1       0.025
  jd14                 JUNCTION     3.570    4.063     0  06:00        23.6        26.8       0.090
  jd15                 JUNCTION     1.466    2.392     0  05:20        9.73        17.5       0.307
  jd16                 JUNCTION     1.576    5.688     0  06:00        10.5        39.2       0.109
  jd17                 JUNCTION     3.300    6.119     0  06:00        21.8        43.8       1.552
  jd18                 JUNCTION     2.615    3.848     0  06:00        17.3        25.4       0.137
  jd19                 JUNCTION     2.427    4.235     0  06:00        16.1        28.9       0.121
  jd20                 JUNCTION     2.018    2.242     0  06:00        13.4        16.3       0.218
  jd21                 JUNCTION     0.936    4.180     0  06:00        6.19        32.4       1.019
  jd22                 JUNCTION     1.649    2.646     0  06:00        10.9        19.3       0.415
  jd23                 JUNCTION     1.630    4.486     0  06:00        10.8        30.8       0.013
  jd24                 JUNCTION     2.677    2.677     0  06:00        17.8        17.8       0.019
  jd25                 JUNCTION     2.106    3.091     0  06:00        13.9        20.4       0.097
  jd26                 JUNCTION     3.065    4.422     0  06:00        20.3        30.6       0.095
  jd27                 JUNCTION     3.159    3.782     0  06:00        20.9        27.2       0.124
  jd28                 JUNCTION     4.316    5.235     0  06:00        28.4        35.9       0.369
  jd29                 JUNCTION     1.725    1.725     0  06:00        11.4        11.4      -0.017
  jd30                 JUNCTION     1.798    3.818     0  06:00        11.9        28.4       0.067
  jd31                 JUNCTION     1.201    1.986     0  06:00        7.94        14.8       3.102
  jd32                 JUNCTION     2.434    5.767     0  06:00        16.1        45.8       0.539
  jd33                 JUNCTION     2.396    3.476     0  06:00        15.9        24.4       0.048
  jd34                 JUNCTION     2.963    2.963     0  06:00        19.7        19.7       0.026
  jd35                 JUNCTION     2.704    4.885     0  06:00        17.9        38.6       0.327
  jd36                 JUNCTION     4.608    5.777     0  06:00        30.4        40.4       0.120
  jd37                 JUNCTION     4.840    4.840     0  06:00          32          32       0.099
  jd38                 JUNCTION     4.442    5.249     0  06:00        29.4        37.7       0.187
  jd39                 JUNCTION     3.074    6.594     0  06:00        20.4        52.3       0.971
  jd40                 JUNCTION     5.246    7.441     0  06:00        34.7        56.1       0.216
  jd41                 JUNCTION     3.683   11.075     0  06:00        24.4          78       2.712
  jd42                 JUNCTION     4.849    5.313     0  06:00        31.9          35       0.122
  jd43                 JUNCTION     5.413    8.190     0  06:00          36        56.4       0.179
  jd44                 JUNCTION     7.257   10.134     0  06:00        48.1        75.9       0.182
  jd45                 JUNCTION     2.963    5.188     0  06:00        19.5          42       0.750
  jd46                 JUNCTION     1.350    1.350     0  06:00        8.87        8.87       0.389
  jd47                 JUNCTION     4.328    4.328     0  06:00        28.7        28.7      -0.086
  jd48                 JUNCTION     1.196    1.196     0  06:00        8.02        8.02      -0.010
  jd49                 JUNCTION     5.899    5.899     0  06:00        38.9        38.9       0.088
  jd50                 JUNCTION     6.107   10.037     0  06:00        40.4        77.1       0.544
  jd51                 JUNCTION     1.274    5.542     0  06:00        8.47        37.8       3.749
  jd52                 JUNCTION     2.605    6.195     0  04:23        17.2        31.8       0.189
  jd53                 JUNCTION     1.450    5.504     0  06:00        9.56        38.7       0.083
  jd54                 JUNCTION     0.777    3.804     0  06:00        5.15        25.5       0.091
  jd55                 JUNCTION     1.416    6.470     0  06:00        9.39        40.2       1.890
  jd56                 JUNCTION     0.860    2.516     0  06:00        5.72        16.7       0.043
  jd59                 JUNCTION     0.854    3.587     0  06:00        5.67        25.3       3.127
  jd60                 JUNCTION     1.529    3.326     0  06:00        10.1        21.9       0.584
  jd61                 JUNCTION     1.716    2.055     0  06:00        11.4        13.3       0.042
  jd62                 JUNCTION     0.689    0.949     0  06:00        4.62        5.46      -0.016
  jd63                 JUNCTION     0.948    0.948     0  06:00        6.29        6.29       0.001
  jd64                 JUNCTION     0.798    1.971     0  06:00        5.29        13.1       2.837
  jd65                 JUNCTION    13.746   13.746     0  06:00        90.4        90.4       0.080
  jd66                 JUNCTION     1.792    4.594     0  06:00          12        32.8       0.964
  jd69                 JUNCTION     3.311    3.311     0  06:00        22.2        22.5       0.028
  jd79                 JUNCTION     3.225    4.141     0  06:00        21.4          30       0.572
  jd80                 JUNCTION     3.584    4.191     0  06:00        23.7        28.8       0.455
  jd81                 JUNCTION     2.724    2.724     0  06:00          18          18       0.009
  jd83                 JUNCTION     2.834    3.412     0  06:00        18.9        23.5       0.363
  jd84                 JUNCTION     3.601    3.601     0  06:00        24.1        24.1       0.025
  jd85                 JUNCTION     0.818    1.563     0  06:00        5.45        9.66       0.858
  jd87                 JUNCTION     0.670    1.660     0  06:00        4.45        10.9       0.667
  jd89                 JUNCTION     0.782    0.782     0  06:00        5.18        5.18       0.040
  jd90                 JUNCTION     0.797    0.797     0  06:00        5.29        5.29       0.006
  jd92                 JUNCTION     0.670    0.670     0  06:00        4.45        4.45      -0.000
  jd93                 JUNCTION     1.447    2.432     0  06:00        9.57        17.5       0.152
  jd94                 JUNCTION     0.092    1.150     0  04:23        0.61        7.92       0.009
  jd95                 JUNCTION     0.174    1.081     0  04:23        1.16        7.33       0.250
  jd96                 JUNCTION     1.306    1.743     0  06:00        8.78        11.7       0.814
  jd97                 JUNCTION     1.411    1.411     0  06:00        9.38        9.38       0.035
  jd98                 JUNCTION     0.787    0.787     0  06:00        5.23        5.23       0.027
  jd99                 JUNCTION     0.379    0.721     0  06:00        2.53        5.42       1.027
  jd101                JUNCTION     1.031    1.738     0  06:00        6.86        12.4      -0.056
  jd102                JUNCTION     1.029    1.029     0  06:00        6.81        6.81       0.068
  jd103                JUNCTION     0.708    0.708     0  06:00         4.7         4.7      -0.004
  jd106                JUNCTION     0.554    3.055     0  06:00        3.68        20.7       1.887
  jd107                JUNCTION     0.799    2.630     0  06:00        5.31        17.5       0.090
  jd108                JUNCTION     0.869    0.869     0  06:00        5.81        5.82       1.095
  jd109                JUNCTION     1.453    1.453     0  06:00        9.65        9.65       0.006
  jd110                JUNCTION     1.103    1.642     0  06:00        7.44        11.1       1.386
  jd111                JUNCTION     0.916    0.916     0  06:00        6.13        6.13      -0.025
  jd112                JUNCTION     1.078    2.634     0  06:00        7.15        18.8       0.021
  jd113                JUNCTION     0.724    0.724     0  06:00        4.88        4.88      -0.038
  jd114                JUNCTION     0.874    4.591     0  06:00         5.8        39.8       0.768
  jd117                JUNCTION     0.806    2.494     0  06:00        5.34        17.1       0.894
  jd118                JUNCTION     0.738    0.738     0  06:00         4.9         4.9      -0.016
  jd120                JUNCTION     0.921    0.921     0  06:00        6.11        6.11       0.010
  jd121                JUNCTION     1.139    1.139     0  06:00        7.57        7.57       0.025
  jd122                JUNCTION     2.703    7.705     0  06:00        17.9        57.2       0.952
  jd123                JUNCTION     2.779    5.441     0  06:00        18.4        43.8       1.562
  jd124                JUNCTION     4.016    5.089     0  06:00        26.5          39       0.151
  jd125                JUNCTION     3.912    5.587     0  06:00        25.8        44.2       0.100
  jd126                JUNCTION     5.687    6.550     0  06:00        37.5        45.3       0.226
  jd135                JUNCTION     1.438    1.438     0  06:00        9.54        9.54       0.006
  jd136                JUNCTION     1.192    1.916     0  06:00        7.98        12.9       0.057
  psk1                 OUTFALL      0.000    1.287     0  06:00           0        9.13       0.000
  psk2                 OUTFALL      0.000    2.937     0  06:00           0        21.7       0.000
  psk3                 OUTFALL      0.000    5.688     0  06:00           0        39.1       0.000
  psk4                 OUTFALL      0.000    0.109     0  05:24           0     0.00166       0.000
  psk5                 OUTFALL      0.000    1.156     0  06:00           0        8.12       0.000
  psk6                 OUTFALL      0.000    1.018     0  06:00           0        7.09       0.000
  psk7                 OUTFALL      0.000    3.692     0  06:00           0          29       0.000
  psk8                 OUTFALL      0.000    0.000     0  00:00           0           0       0.000 ltr
  
  
  **********************
  Node Surcharge Summary
  **********************
  
  Surcharging occurs when water rises above the top of the highest conduit.
  ---------------------------------------------------------------------
                                               Max. Height   Min. Depth
                                   Hours       Above Crown    Below Rim
  Node                 Type      Surcharged         Meters       Meters
  ---------------------------------------------------------------------
  jd2                  JUNCTION        1.99          2.200        0.000
  jd3                  JUNCTION        3.76          2.200        0.000
  jd4                  JUNCTION        2.84          2.200        0.000
  jd8                  JUNCTION        3.31          2.200        0.000
  jd9                  JUNCTION        2.92          2.200        0.000
  jd10                 JUNCTION        3.81          2.400        0.000
  jd12                 JUNCTION        3.81          2.400        0.000
  jd14                 JUNCTION        1.90          2.400        0.000
  jd15                 JUNCTION        0.64          2.000        0.000
  jd16                 JUNCTION        0.96          2.000        0.000
  jd17                 JUNCTION        3.38          2.200        0.000
  jd18                 JUNCTION        1.85          2.000        0.000
  jd19                 JUNCTION        2.52          2.200        0.000
  jd21                 JUNCTION        3.76          2.200        0.000
  jd22                 JUNCTION        3.75          2.400        0.000
  jd23                 JUNCTION        1.76          2.000        0.000
  jd25                 JUNCTION        1.62          2.000        0.000
  jd26                 JUNCTION        1.92          2.400        0.000
  jd27                 JUNCTION        1.65          2.400        0.000
  jd28                 JUNCTION        3.83          2.400        0.000
  jd31                 JUNCTION        3.68          2.200        0.000
  jd32                 JUNCTION        3.80          2.200        0.000
  jd34                 JUNCTION        1.80          2.400        0.000
  jd35                 JUNCTION        3.85          2.400        0.000
  jd36                 JUNCTION        2.12          2.400        0.000
  jd37                 JUNCTION        2.08          2.400        0.000
  jd38                 JUNCTION        1.69          2.000        0.000
  jd39                 JUNCTION        3.76          2.000        0.000
  jd40                 JUNCTION        2.42          2.200        0.000
  jd41                 JUNCTION        3.67          1.000        0.000
  jd42                 JUNCTION        0.67          2.200        0.000
  jd43                 JUNCTION        2.20          2.200        0.000
  jd44                 JUNCTION        2.31          2.000        0.000
  jd45                 JUNCTION        3.76          2.000        0.000
  jd46                 JUNCTION        1.60          2.200        0.000
  jd49                 JUNCTION        1.56          2.200        0.000
  jd50                 JUNCTION        3.83          2.200        0.000
  jd51                 JUNCTION        3.67          1.350        0.000
  jd52                 JUNCTION        1.93          1.500        0.000
  jd53                 JUNCTION        2.03          1.800        0.000
  jd54                 JUNCTION        0.69          1.800        0.000
  jd55                 JUNCTION        2.39          1.500        0.000
  jd59                 JUNCTION        3.65          1.500        0.000
  jd60                 JUNCTION        3.82          2.400        0.000
  jd64                 JUNCTION        3.66          1.800        0.000
  jd65                 JUNCTION        3.08          2.400        0.000
  jd66                 JUNCTION        3.80          2.200        0.000
  jd69                 JUNCTION        0.93          2.200        0.000
  jd79                 JUNCTION        3.82          2.400        0.000
  jd80                 JUNCTION        3.66          2.400        0.000
  jd83                 JUNCTION        3.88          2.400        0.000
  jd84                 JUNCTION        1.86          2.400        0.000
  jd85                 JUNCTION        3.83          2.400        0.000
  jd87                 JUNCTION        3.82          2.400        0.000
  jd89                 JUNCTION        0.97          2.400        0.000
  jd92                 JUNCTION        0.97          2.400        0.000
  jd93                 JUNCTION        2.13          2.200        0.000
  jd94                 JUNCTION        1.90          2.200        0.000
  jd95                 JUNCTION        1.86          2.200        0.000
  jd96                 JUNCTION        3.85          2.200        0.000
  jd97                 JUNCTION        1.86          2.200        0.000
  jd98                 JUNCTION        1.49          2.143        0.257
  jd99                 JUNCTION        3.80          2.400        0.000
  jd102                JUNCTION        1.73          2.400        0.000
  jd106                JUNCTION        3.73          2.000        0.000
  jd108                JUNCTION        3.83          1.515        0.485
  jd109                JUNCTION        0.72          2.400        0.000
  jd110                JUNCTION        3.83          2.000        0.000
  jd114                JUNCTION        3.77          2.000        0.000
  jd117                JUNCTION        3.75          2.200        0.000
  jd120                JUNCTION        1.48          2.400        0.000
  jd121                JUNCTION        0.93          2.400        0.000
  jd122                JUNCTION        3.77          2.200        0.000
  jd123                JUNCTION        3.75          2.200        0.000
  jd124                JUNCTION        3.89          2.400        0.000
  jd125                JUNCTION        2.81          2.200        0.000
  jd126                JUNCTION        3.86          2.400        0.000
  jd135                JUNCTION        0.84          2.149        0.251
  jd136                JUNCTION        1.53          2.200        0.000
  
  
  *********************
  Node Flooding Summary
  *********************
  
  Flooding refers to all water that overflows a node, whether it ponds or not.
  --------------------------------------------------------------------------
                                                             Total   Maximum
                                 Maximum   Time of Max       Flood    Ponded
                        Hours       Rate    Occurrence      Volume     Depth
  Node                 Flooded       CMS   days hr:min    10^6 ltr    Meters
  --------------------------------------------------------------------------
  jd2                     1.83     1.581      0  06:00       7.729     0.000
  jd3                     3.76     4.311      0  06:00      33.639     0.000
  jd4                     2.51     2.924      0  06:00      16.746     0.000
  jd8                     2.22     0.843      0  04:14       3.311     0.000
  jd9                     2.18     1.163      0  04:15       4.390     0.000
  jd10                    3.81     1.897      0  06:00      12.527     0.000
  jd12                    3.81     3.781      0  06:00      24.656     0.000
  jd14                    1.82     2.373      0  06:00      11.161     0.000
  jd15                    0.01     0.180      0  05:24       0.001     0.000
  jd16                    0.01     0.557      0  05:07       0.003     0.000
  jd17                    2.85     5.290      0  06:00      32.950     0.000
  jd18                    1.76     2.324      0  06:00      11.704     0.000
  jd19                    2.06     3.168      0  06:00      17.684     0.000
  jd21                    3.76     4.180      0  06:00      31.835     0.000
  jd22                    2.14     1.822      0  06:00      10.797     0.000
  jd23                    1.58     1.469      0  06:00       6.788     0.000
  jd25                    0.98     0.858      0  04:29       1.220     0.000
  jd26                    1.86     2.526      0  06:00      13.245     0.000
  jd27                    1.53     0.903      0  06:00       3.343     0.000
  jd28                    3.83     5.235      0  06:00      35.811     0.000
  jd31                    0.01     1.534      0  04:19       0.020     0.000
  jd32                    3.80     5.767      0  06:00      45.520     0.000
  jd34                    1.75     1.135      0  06:00       5.119     0.000
  jd35                    3.85     4.885      0  06:00      38.437     0.000
  jd36                    2.00     3.721      0  06:00      19.516     0.000
  jd37                    1.99     3.493      0  06:00      18.363     0.000
  jd38                    1.44     1.069      0  06:00       3.699     0.000
  jd39                    3.76     6.594      0  06:00      51.756     0.000
  jd40                    2.25     4.879      0  06:00      28.414     0.000
  jd41                    3.67    11.075      0  06:00      75.983     0.000
  jd42                    0.01     0.408      0  05:22       0.004     0.000
  jd43                    2.14     6.359      0  06:00      36.806     0.000
  jd44                    2.06     6.233      0  06:00      34.683     0.000
  jd45                    3.76     5.188      0  06:00      41.708     0.000
  jd46                    1.50     0.564      0  06:00       2.211     0.000
  jd49                    1.52     2.017      0  06:00       7.845     0.000
  jd50                    3.83    10.037      0  06:00      76.692     0.000
  jd51                    3.67     5.542      0  06:00      36.413     0.000
  jd52                    0.02     3.908      0  04:24       0.131     0.000
  jd53                    1.82     3.202      0  06:00      16.162     0.000
  jd54                    0.01     0.297      0  05:21       0.002     0.000
  jd55                    1.94     6.470      0  06:00      35.701     0.000
  jd59                    3.65     3.587      0  06:00      24.504     0.000
  jd60                    3.82     3.326      0  06:00      21.744     0.000
  jd64                    1.64     0.995      0  04:20       2.027     0.000
  jd65                    3.04    12.653      0  06:00      76.380     0.000
  jd66                    3.80     4.594      0  06:00      32.533     0.000
  jd69                    0.90     0.402      0  05:06       0.752     0.000
  jd79                    3.26     3.917      0  06:00      26.882     0.000
  jd80                    3.08     4.034      0  06:00      26.351     0.000
  jd83                    3.88     3.412      0  06:00      23.420     0.000
  jd84                    1.81     1.761      0  06:00       8.802     0.000
  jd85                    3.83     1.563      0  06:00       9.575     0.000
  jd87                    3.82     1.660      0  06:00      10.826     0.000
  jd89                    0.79     0.086      0  05:05       0.056     0.000
  jd92                    0.01     0.037      0  05:04       0.000     0.000
  jd93                    1.78     1.271      0  06:00       6.678     0.000
  jd94                    0.01     0.576      0  04:23       0.009     0.000
  jd95                    0.01     0.069      0  04:20       0.002     0.000
  jd96                    3.85     1.743      0  06:00      11.591     0.000
  jd97                    1.69     0.692      0  06:00       3.207     0.000
  jd99                    3.80     0.721      0  06:00       5.365     0.000
  jd102                   1.63     0.322      0  06:00       1.302     0.000
  jd106                   3.73     3.055      0  06:00      20.350     0.000
  jd109                   0.01     0.073      0  05:18       0.001     0.000
  jd110                   3.83     1.642      0  06:00      10.902     0.000
  jd114                   3.77     4.591      0  06:00      39.477     0.000
  jd117                   1.83     1.138      0  04:15       5.401     0.000
  jd120                   0.82     0.038      0  04:35       0.083     0.000
  jd121                   0.90     0.093      0  05:06       0.251     0.000
  jd122                   3.77     7.705      0  06:00      56.517     0.000
  jd123                   3.75     5.127      0  06:00      38.985     0.000
  jd124                   3.89     5.089      0  06:00      38.926     0.000
  jd125                   2.19     3.201      0  06:00      17.782     0.000
  jd126                   3.86     6.550      0  06:00      45.224     0.000
  jd136                   1.04     0.360      0  06:00       1.203     0.000
  
  
  ***********************
  Outfall Loading Summary
  ***********************
  
  -----------------------------------------------------------
                         Flow       Avg       Max       Total
                         Freq      Flow      Flow      Volume
  Outfall Node           Pcnt       CMS       CMS    10^6 ltr
  -----------------------------------------------------------
  psk1                  94.05     0.727     1.287       9.128
  psk2                  92.69     1.734     2.937      21.656
  psk3                  94.90     3.089     5.688      39.133
  psk4                   0.30     0.044     0.109       0.002
  psk5                  92.81     0.649     1.156       8.116
  psk6                  92.72     0.570     1.018       7.091
  psk7                  92.69     2.258     3.692      29.022
  psk8                   0.00     0.000     0.000       0.000
  -----------------------------------------------------------
  System                70.02     9.071     0.000     114.148
  
  
  ********************
  Link Flow Summary
  ********************
  
  -----------------------------------------------------------------------------
                                 Maximum  Time of Max   Maximum    Max/    Max/
                                  |Flow|   Occurrence   |Veloc|    Full    Full
  Link                 Type          CMS  days hr:min     m/sec    Flow   Depth
  -----------------------------------------------------------------------------
  GQ1                  CONDUIT     0.389     0  06:00      1.98    1.02    0.74
  GQ2                  CONDUIT     2.212     0  06:05      2.90    1.05    1.00
  GQ3                  CONDUIT     1.287     0  06:00      7.72    0.05    0.15
  GQ4                  CONDUIT     0.510     0  04:37      1.80    1.00    1.00
  GQ5                  CONDUIT     1.208     0  05:05      2.40    1.00    1.00
  GQ6                  CONDUIT     0.624     0  06:00      1.71    0.28    0.68
  GQ7                  CONDUIT     1.702     0  04:17      3.59    1.02    1.00
  GQ8                  CONDUIT     1.045     0  05:01      2.08    1.00    1.00
  GQ9                  CONDUIT     2.837     0  05:08      5.74    1.00    1.00
  GQ10                 CONDUIT     1.134     0  07:18      4.10    1.04    1.00
  GQ11                 CONDUIT     0.464     0  06:00      2.46    0.50    0.75
  GQ12                 CONDUIT     0.594     0  06:00      2.47    0.65    0.79
  GQ13                 CONDUIT     0.310     0  06:00      0.93    0.15    0.63
  GQ14                 CONDUIT     0.182     0  06:00      1.39    0.26    0.31
  GQ15                 CONDUIT     0.248     0  04:31      4.43    1.00    0.85
  GQ16                 CONDUIT     2.020     0  06:00      4.10    0.98    0.65
  GQ17                 CONDUIT     0.869     0  06:00      2.58    0.27    0.64
  GQ18                 CONDUIT     1.117     0  05:04      2.50    5.03    0.96
  GQ19                 CONDUIT     1.190     0  06:00      3.10    0.14    0.49
  GQ20                 CONDUIT     0.261     0  06:00      0.57    0.14    0.63
  GQ21                 CONDUIT     0.972     0  06:00      1.73    0.30    0.69
  GQ22                 CONDUIT     0.985     0  06:00      1.94    0.30    0.69
  GQ23                 CONDUIT     2.040     0  05:28      2.60    1.00    1.00
  GQ24                 CONDUIT     2.020     0  04:45      4.02    1.00    1.00
  GQ25                 CONDUIT     1.080     0  06:00      4.13    1.21    0.95
  GQ26                 CONDUIT     0.816     0  06:00      3.01    0.95    0.95
  GQ27                 CONDUIT     0.997     0  04:37      3.52    1.00    1.00
  GQ28                 CONDUIT     0.434     0  06:00      0.94    0.47    0.86
  GQ29                 CONDUIT     1.986     0  06:00      3.95    0.93    1.00
  GQ30                 CONDUIT     0.824     0  04:25      2.91    1.00    1.00
  GQ31                 CONDUIT     0.747     0  04:40      2.64    1.00    1.00
  GQ32                 CONDUIT     0.739     0  04:28      2.96    1.19    1.00
  GQ33                 CONDUIT     1.434     0  04:39      5.07    1.00    1.00
  GQ34                 CONDUIT     0.629     0  06:00      2.23    0.99    1.00
  GQ35                 CONDUIT     0.712     0  04:19      2.52    1.32    1.00
  GQ36                 CONDUIT     0.973     0  04:18      3.45    1.21    1.00
  GQ37                 CONDUIT     0.699     0  05:13      2.47    1.00    1.00
  GQ38                 CONDUIT     0.220     0  06:00      0.97    0.31    0.75
  GQ39                 CONDUIT     0.782     0  04:40      2.76    1.00    1.00
  GQ40                 CONDUIT     0.804     0  05:01      2.84    1.00    1.00
  GQ41                 CONDUIT     2.160     0  05:17      2.75    1.00    1.00
  GQ42                 CONDUIT     1.359     0  04:55      2.70    1.00    1.00
  GQ43                 CONDUIT     2.299     0  06:32      4.70    1.03    1.00
  GQ44                 CONDUIT     0.946     0  05:04      1.88    1.00    1.00
  GQ45                 CONDUIT     1.808     0  06:00      3.93    0.73    0.86
  GQ46                 CONDUIT     1.145     0  04:15      2.34    1.07    1.00
  GQ47                 CONDUIT     0.389     0  06:00      1.81    0.37    0.71
  GQ48                 CONDUIT     0.387     0  06:00      1.80    0.37    0.71
  GQ49                 CONDUIT     1.716     0  06:00      7.14    0.65    0.79
  GQ50                 CONDUIT     0.494     0  06:00      2.05    0.65    0.79
  GQ51                 CONDUIT     0.995     0  04:26      3.64    1.52    1.00
  GQ52                 CONDUIT     0.858     0  06:05      1.71    1.14    1.00
  GQ53                 CONDUIT     2.225     0  05:09      2.83    1.00    1.00
  GQ54                 CONDUIT     1.065     0  06:00      3.99    0.91    0.89
  GQ55                 CONDUIT     0.733     0  06:00      3.22    0.50    0.75
  GQ56                 CONDUIT     1.994     0  04:18      4.29    1.09    1.00
  GQ57                 CONDUIT     1.516     0  06:00      3.02    0.99    1.00
  GQ58                 CONDUIT     3.167     0  06:00      6.34    0.99    1.00
  GQ59                 CONDUIT     1.203     0  04:46      2.39    1.00    1.00
  GQ60                 CONDUIT     3.359     0  04:23      2.32    0.81    1.00
  GQ61                 CONDUIT     0.532     0  06:00      0.73    0.07    0.59
  GQ62                 CONDUIT     1.306     0  06:00      0.93    0.13    0.62
  GQ63                 CONDUIT     3.022     0  06:00      1.86    0.09    0.60
  GQ64                 CONDUIT     0.338     0  06:00      2.13    0.26    0.57
  GQ65                 CONDUIT     0.260     0  06:00      1.28    0.47    0.67
  GQ66                 CONDUIT     0.376     0  06:00      1.16    0.11    0.61
  GQ67                 CONDUIT     1.442     0  05:33      1.28    1.00    1.00
  GQ68                 CONDUIT     2.174     0  06:00      3.05    0.69    0.85
  GQ69                 CONDUIT     2.934     0  05:05      5.97    1.05    1.00
  GQ70                 CONDUIT     1.018     0  06:00      9.87    0.15    0.26
  GQ71                 CONDUIT     1.156     0  06:00      7.01    0.28    0.36
  GQ72                 CONDUIT     3.692     0  06:00      6.01    0.88    0.73
  GQ73                 CONDUIT     2.937     0  06:00     15.07    0.19    0.30
  GQ74                 CONDUIT     0.768     0  06:00      1.75    0.14    0.63
  GQ75                 CONDUIT     0.661     0  06:00      1.23    0.19    0.65
  GQ76                 CONDUIT     5.688     0  06:00      7.24    1.23    1.00
  GQ77                 CONDUIT     0.109     0  05:24      0.24    0.03    0.56
  GQ78                 CONDUIT     0.916     0  05:01      3.24    1.00    1.00
  GQ79                 CONDUIT     0.253     0  04:29      1.08    0.54    0.98
  GQ80                 CONDUIT     0.608     0  05:01      2.15    1.00    1.00
  GQ81                 CONDUIT     0.605     0  04:14      2.25    3.83    1.00
  GQ82                 CONDUIT     1.286     0  06:00      4.87    0.89    0.88
  GQ83                 CONDUIT     1.441     0  06:00      5.47    0.92    0.88
  GQ84                 CONDUIT     1.303     0  04:15      4.75    1.03    1.00
  GQ85                 CONDUIT     0.579     0  04:47      2.05    1.00    1.00
  GQ86                 CONDUIT     0.611     0  06:00      3.01    0.26    0.67
  GQ87                 CONDUIT     0.135     0  06:00      0.69    0.20    0.65
  GQ88                 CONDUIT     0.990     0  06:00      3.71    0.88    0.89
  GQ89                 CONDUIT     0.759     0  05:22      2.68    1.00    1.00
  GQ90                 CONDUIT     0.797     0  06:00      3.10    0.80    0.85
  GQ91                 CONDUIT     0.670     0  06:00      2.37    0.82    1.00
  GQ92                 CONDUIT     1.081     0  04:23      2.39    1.56    1.00
  GQ93                 CONDUIT     0.985     0  05:25      1.96    0.85    1.00
  GQ94                 CONDUIT     1.378     0  04:21      2.75    1.63    1.00
  GQ95                 CONDUIT     0.437     0  06:00      1.35    0.11    0.61
  GQ96                 CONDUIT     0.957     0  04:23      1.90    1.63    1.00
  GQ97                 CONDUIT     0.787     0  06:00      2.78    1.42    1.00
  GQ98                 CONDUIT     0.342     0  06:00      1.21    0.49    1.00
  GQ99                 CONDUIT     1.206     0  06:00      1.23    0.07    0.59
  GQ100                CONDUIT     0.706     0  06:00      3.31    1.21    0.72
  GQ101                CONDUIT     0.708     0  06:00      3.07    0.53    0.76
  GQ102                CONDUIT     2.661     0  06:00      5.90    0.81    0.84
  GQ103                CONDUIT     0.650     0  05:13      2.30    1.00    1.00
  GQ104                CONDUIT     1.389     0  04:28      5.02    1.01    1.00
  GQ105                CONDUIT     0.917     0  04:14      1.83    2.91    1.00
  GQ106                CONDUIT     0.720     0  06:00      2.92    0.72    0.81
  GQ107                CONDUIT     1.114     0  04:30      3.94    1.00    1.00
  GQ108                CONDUIT     0.829     0  04:48      1.65    1.00    1.00
  GQ109                CONDUIT     0.553     0  06:00      1.96    0.75    1.00
  GQ110                CONDUIT     0.956     0  06:00      1.85    0.14    0.63
  GQ111                CONDUIT     0.885     0  06:00      3.13    0.81    1.00
  GQ112                CONDUIT     2.630     0  06:00      3.49    0.47    0.74
  GQ113                CONDUIT     1.453     0  06:00      5.19    1.10    0.98
  GQ114                CONDUIT     0.869     0  06:00      1.22    0.36    0.85
  GQ115                CONDUIT     0.377     0  06:00      1.26    0.05    0.32
  GQ116                CONDUIT     0.538     0  06:00      1.11    0.07    0.59
  GQ117                CONDUIT     1.557     0  06:00      4.94    0.97    0.64
  GQ118                CONDUIT     0.724     0  06:00      2.71    0.25    0.67
  GQ119                CONDUIT     2.302     0  04:31      4.58    1.00    1.00
  GQ120                CONDUIT     0.000     0  00:00      0.00    0.00    0.50
  GQ121                CONDUIT     1.414     0  05:26      2.81    1.00    1.00
  GQ122                CONDUIT     0.950     0  06:00      2.79    0.17    0.64
  GQ123                CONDUIT     0.738     0  06:00      3.46    0.35    0.71
  GQ124                CONDUIT     0.398     0  06:00      1.36    0.17    0.64
  GQ125                CONDUIT     0.889     0  05:23      3.14    1.00    1.00
  GQ126                CONDUIT     1.049     0  05:26      3.71    1.00    1.00
  GQ127                CONDUIT     0.826     0  06:24      1.64    1.06    1.00
  GQ128                CONDUIT     3.804     0  06:00      3.37    0.83    1.00
  GQ129                CONDUIT     1.313     0  04:47      2.61    1.00    1.00
  GQ130                CONDUIT     1.073     0  04:32      3.79    1.00    1.00
  GQ131                CONDUIT     0.862     0  04:29      3.05    1.00    1.00
  
  
  ***************************
  Flow Classification Summary
  ***************************
  
  -------------------------------------------------------------------------------------
                      Adjusted    ---------- Fraction of Time in Flow Class ---------- 
                       /Actual         Up    Down  Sub   Sup   Up    Down  Norm  Inlet 
  Conduit               Length    Dry  Dry   Dry   Crit  Crit  Crit  Crit  Ltd   Ctrl  
  -------------------------------------------------------------------------------------
  GQ1                     1.00   0.04  0.00  0.00  0.62  0.34  0.00  0.00  0.00  0.00
  GQ2                     1.00   0.04  0.00  0.00  0.54  0.43  0.00  0.00  0.71  0.00
  GQ3                     1.00   0.06  0.00  0.00  0.02  0.92  0.00  0.00  0.09  0.00
  GQ4                     1.00   0.04  0.00  0.00  0.96  0.00  0.00  0.00  0.45  0.00
  GQ5                     1.00   0.04  0.00  0.00  0.96  0.00  0.00  0.00  0.58  0.00
  GQ6                     1.00   0.04  0.01  0.00  0.94  0.02  0.00  0.00  0.87  0.00
  GQ7                     1.00   0.04  0.00  0.00  0.71  0.25  0.00  0.00  0.06  0.00
  GQ8                     1.00   0.04  0.00  0.00  0.96  0.00  0.00  0.00  0.64  0.00
  GQ9                     1.00   0.04  0.00  0.00  0.78  0.19  0.00  0.00  0.65  0.00
  GQ10                    1.00   0.04  0.00  0.00  0.86  0.10  0.00  0.00  0.48  0.00
  GQ11                    1.00   0.04  0.00  0.00  0.66  0.30  0.00  0.00  0.76  0.00
  GQ12                    1.00   0.04  0.00  0.00  0.66  0.30  0.00  0.00  0.87  0.00
  GQ13                    1.00   0.04  0.01  0.00  0.95  0.00  0.00  0.00  0.87  0.00
  GQ14                    1.00   0.04  0.00  0.00  0.49  0.47  0.00  0.00  0.06  0.00
  GQ15                    1.00   0.04  0.00  0.00  0.04  0.92  0.00  0.00  0.02  0.00
  GQ16                    1.00   0.04  0.00  0.00  0.05  0.91  0.00  0.00  0.00  0.00
  GQ17                    1.00   0.04  0.00  0.00  0.33  0.63  0.00  0.00  0.86  0.00
  GQ18                    1.00   0.04  0.00  0.00  0.91  0.05  0.00  0.00  0.38  0.00
  GQ19                    1.00   0.04  0.00  0.00  0.27  0.69  0.00  0.00  0.86  0.00
  GQ20                    1.00   0.04  0.00  0.00  0.96  0.00  0.00  0.00  0.87  0.00
  GQ21                    1.00   0.04  0.00  0.00  0.93  0.03  0.00  0.00  0.87  0.00
  GQ22                    1.00   0.04  0.00  0.00  0.63  0.33  0.00  0.00  0.87  0.00
  GQ23                    1.00   0.04  0.00  0.00  0.64  0.32  0.00  0.00  0.27  0.00
  GQ24                    1.00   0.04  0.00  0.00  0.93  0.03  0.00  0.00  0.62  0.00
  GQ25                    1.00   0.04  0.00  0.00  0.01  0.95  0.00  0.00  0.01  0.00
  GQ26                    1.00   0.04  0.00  0.00  0.34  0.62  0.00  0.00  0.55  0.00
  GQ27                    1.00   0.04  0.00  0.00  0.85  0.11  0.00  0.00  0.60  0.00
  GQ28                    1.00   0.04  0.00  0.00  0.96  0.00  0.00  0.00  0.62  0.00
  GQ29                    1.00   0.04  0.00  0.00  0.96  0.00  0.00  0.00  0.40  0.00
  GQ30                    1.00   0.04  0.00  0.00  0.93  0.04  0.00  0.00  0.38  0.00
  GQ31                    1.00   0.04  0.00  0.00  0.96  0.00  0.00  0.00  0.62  0.00
  GQ32                    1.00   0.04  0.00  0.00  0.56  0.41  0.00  0.00  0.01  0.00
  GQ33                    1.00   0.04  0.00  0.00  0.79  0.17  0.00  0.00  0.57  0.00
  GQ34                    1.00   0.04  0.00  0.00  0.95  0.02  0.00  0.00  0.64  0.00
  GQ35                    1.00   0.04  0.00  0.00  0.69  0.27  0.00  0.00  0.26  0.00
  GQ36                    1.00   0.04  0.00  0.00  0.62  0.34  0.00  0.00  0.45  0.00
  GQ37                    1.00   0.04  0.00  0.00  0.96  0.00  0.00  0.00  0.60  0.00
  GQ38                    1.00   0.04  0.01  0.00  0.95  0.00  0.00  0.00  0.61  0.00
  GQ39                    1.00   0.04  0.00  0.00  0.92  0.04  0.00  0.00  0.60  0.00
  GQ40                    1.00   0.04  0.00  0.00  0.61  0.36  0.00  0.00  0.63  0.00
  GQ41                    1.00   0.04  0.00  0.00  0.96  0.00  0.00  0.00  0.58  0.00
  GQ42                    1.00   0.04  0.00  0.00  0.96  0.00  0.00  0.00  0.51  0.00
  GQ43                    1.00   0.04  0.00  0.00  0.65  0.31  0.00  0.00  0.59  0.00
  GQ44                    1.00   0.04  0.00  0.00  0.96  0.00  0.00  0.00  0.46  0.00
  GQ45                    1.00   0.04  0.00  0.00  0.33  0.63  0.00  0.00  0.65  0.00
  GQ46                    1.00   0.04  0.00  0.00  0.87  0.09  0.00  0.00  0.31  0.00
  GQ47                    1.00   0.04  0.00  0.00  0.96  0.00  0.00  0.00  0.87  0.00
  GQ48                    1.00   0.04  0.00  0.00  0.96  0.00  0.00  0.00  0.87  0.00
  GQ49                    1.00   0.04  0.00  0.00  0.34  0.62  0.00  0.00  0.87  0.00
  GQ50                    1.00   0.04  0.00  0.00  0.96  0.01  0.00  0.00  0.87  0.00
  GQ51                    1.00   0.04  0.00  0.00  0.57  0.39  0.00  0.00  0.31  0.00
  GQ52                    1.00   0.04  0.00  0.00  0.96  0.00  0.00  0.00  0.24  0.00
  GQ53                    1.00   0.04  0.00  0.00  0.96  0.00  0.00  0.00  0.52  0.00
  GQ54                    1.00   0.04  0.00  0.00  0.44  0.53  0.00  0.00  0.76  0.00
  GQ55                    1.00   0.04  0.00  0.00  0.45  0.51  0.00  0.00  0.87  0.00
  GQ56                    1.00   0.04  0.00  0.00  0.62  0.34  0.00  0.00  0.23  0.00
  GQ57                    1.00   0.04  0.00  0.00  0.96  0.00  0.00  0.00  0.69  0.00
  GQ58                    1.00   0.04  0.00  0.00  0.57  0.40  0.00  0.00  0.72  0.00
  GQ59                    1.00   0.04  0.00  0.00  0.96  0.00  0.00  0.00  0.52  0.00
  GQ60                    1.00   0.04  0.00  0.00  0.96  0.00  0.00  0.00  0.41  0.00
  GQ61                    1.00   0.04  0.00  0.00  0.96  0.00  0.00  0.00  0.87  0.00
  GQ62                    1.00   0.04  0.00  0.00  0.96  0.00  0.00  0.00  0.87  0.00
  GQ63                    1.00   0.04  0.00  0.00  0.95  0.02  0.00  0.00  0.87  0.00
  GQ64                    1.00   0.04  0.00  0.00  0.31  0.65  0.00  0.00  0.87  0.00
  GQ65                    1.00   0.04  0.00  0.00  0.96  0.00  0.00  0.00  0.76  0.00
  GQ66                    1.00   0.04  0.00  0.00  0.95  0.01  0.00  0.00  0.87  0.00
  GQ67                    1.00   0.04  0.00  0.00  0.96  0.00  0.00  0.00  0.39  0.00
  GQ68                    1.00   0.04  0.00  0.00  0.96  0.00  0.00  0.00  0.67  0.00
  GQ69                    1.00   0.04  0.00  0.00  0.63  0.34  0.00  0.00  0.74  0.00
  GQ70                    1.00   0.05  0.00  0.00  0.04  0.91  0.00  0.00  0.15  0.00
  GQ71                    1.00   0.04  0.00  0.00  0.03  0.92  0.00  0.00  0.07  0.00
  GQ72                    1.00   0.04  0.00  0.00  0.01  0.95  0.00  0.00  0.21  0.00
  GQ73                    1.00   0.05  0.00  0.00  0.04  0.92  0.00  0.00  0.19  0.00
  GQ74                    1.00   0.04  0.00  0.00  0.91  0.05  0.00  0.00  0.87  0.00
  GQ75                    1.00   0.04  0.01  0.00  0.95  0.00  0.00  0.00  0.87  0.00
  GQ76                    1.00   0.04  0.00  0.00  0.29  0.68  0.00  0.00  0.24  0.00
  GQ77                    1.00   0.04  0.96  0.00  0.00  0.00  0.00  0.00  0.32  0.00
  GQ78                    1.00   0.04  0.00  0.00  0.92  0.04  0.00  0.00  0.57  0.00
  GQ79                    1.00   0.04  0.00  0.00  0.96  0.00  0.00  0.00  0.39  0.00
  GQ80                    1.00   0.04  0.00  0.00  0.96  0.00  0.00  0.00  0.50  0.00
  GQ81                    1.00   0.04  0.00  0.00  0.96  0.00  0.00  0.00  0.00  0.00
  GQ82                    1.00   0.04  0.00  0.00  0.34  0.62  0.00  0.00  0.75  0.00
  GQ83                    1.00   0.04  0.00  0.00  0.04  0.93  0.00  0.00  0.77  0.00
  GQ84                    1.00   0.04  0.00  0.00  0.71  0.25  0.00  0.00  0.62  0.00
  GQ85                    1.00   0.04  0.00  0.00  0.96  0.00  0.00  0.00  0.51  0.00
  GQ86                    1.00   0.04  0.00  0.00  0.68  0.29  0.00  0.00  0.87  0.00
  GQ87                    1.00   0.04  0.00  0.00  0.96  0.00  0.00  0.00  0.87  0.00
  GQ88                    1.00   0.04  0.00  0.00  0.44  0.52  0.00  0.00  0.74  0.00
  GQ89                    1.00   0.04  0.00  0.00  0.96  0.01  0.00  0.00  0.65  0.00
  GQ90                    1.00   0.04  0.00  0.00  0.43  0.53  0.00  0.00  0.74  0.00
  GQ91                    1.00   0.04  0.00  0.00  0.95  0.01  0.00  0.00  0.64  0.00
  GQ92                    1.00   0.04  0.00  0.00  0.94  0.03  0.00  0.00  0.02  0.00
  GQ93                    1.00   0.04  0.00  0.00  0.96  0.00  0.00  0.00  0.61  0.00
  GQ94                    1.00   0.04  0.00  0.00  0.78  0.18  0.00  0.00  0.06  0.00
  GQ95                    1.00   0.04  0.00  0.00  0.96  0.00  0.00  0.00  0.87  0.00
  GQ96                    1.00   0.04  0.00  0.00  0.96  0.01  0.00  0.00  0.37  0.00
  GQ97                    1.00   0.04  0.00  0.00  0.52  0.44  0.00  0.00  0.18  0.00
  GQ98                    1.00   0.04  0.00  0.00  0.96  0.00  0.00  0.00  0.59  0.00
  GQ99                    1.00   0.04  0.00  0.00  0.95  0.01  0.00  0.00  0.87  0.00
  GQ100                   1.00   0.04  0.00  0.00  0.05  0.92  0.00  0.00  0.00  0.00
  GQ101                   1.00   0.04  0.00  0.00  0.45  0.51  0.00  0.00  0.87  0.00
  GQ102                   1.00   0.04  0.00  0.00  0.36  0.61  0.00  0.00  0.87  0.00
  GQ103                   1.00   0.04  0.00  0.00  0.96  0.00  0.00  0.00  0.62  0.00
  GQ104                   1.00   0.04  0.00  0.00  0.77  0.19  0.00  0.00  0.64  0.00
  GQ105                   1.00   0.04  0.00  0.00  0.96  0.00  0.00  0.00  0.39  0.00
  GQ106                   1.00   0.04  0.00  0.00  0.46  0.50  0.00  0.00  0.87  0.00
  GQ107                   1.00   0.04  0.00  0.00  0.79  0.18  0.00  0.00  0.61  0.00
  GQ108                   1.00   0.04  0.00  0.00  0.96  0.00  0.00  0.00  0.39  0.00
  GQ109                   1.00   0.04  0.00  0.00  0.92  0.05  0.00  0.00  0.62  0.00
  GQ110                   1.00   0.04  0.00  0.00  0.95  0.01  0.00  0.00  0.87  0.00
  GQ111                   1.00   0.04  0.00  0.00  0.72  0.25  0.00  0.00  0.64  0.00
  GQ112                   1.00   0.04  0.00  0.00  0.06  0.90  0.00  0.00  0.85  0.00
  GQ113                   1.00   0.04  0.00  0.00  0.00  0.96  0.00  0.00  0.71  0.00
  GQ114                   1.00   0.04  0.00  0.00  0.96  0.00  0.00  0.00  0.39  0.00
  GQ115                   1.00   0.04  0.00  0.00  0.94  0.02  0.00  0.00  0.87  0.00
  GQ116                   1.00   0.04  0.00  0.00  0.96  0.00  0.00  0.00  0.87  0.00
  GQ117                   1.00   0.04  0.00  0.00  0.00  0.96  0.00  0.00  0.01  0.00
  GQ118                   1.00   0.04  0.00  0.00  0.78  0.18  0.00  0.00  0.86  0.00
  GQ119                   1.00   0.04  0.00  0.00  0.85  0.11  0.00  0.00  0.57  0.00
  GQ120                   1.00   0.04  0.13  0.00  0.83  0.00  0.00  0.00  0.00  0.00
  GQ121                   1.00   0.04  0.00  0.00  0.96  0.00  0.00  0.00  0.40  0.00
  GQ122                   1.00   0.04  0.02  0.00  0.37  0.57  0.00  0.00  0.87  0.00
  GQ123                   1.00   0.04  0.00  0.00  0.38  0.58  0.00  0.00  0.87  0.00
  GQ124                   1.00   0.04  0.02  0.00  0.92  0.02  0.00  0.00  0.87  0.00
  GQ125                   1.00   0.04  0.00  0.00  0.95  0.01  0.00  0.00  0.64  0.00
  GQ126                   1.00   0.04  0.00  0.00  0.69  0.27  0.00  0.00  0.66  0.00
  GQ127                   1.00   0.04  0.00  0.00  0.96  0.00  0.00  0.00  0.49  0.00
  GQ128                   1.00   0.04  0.00  0.00  0.67  0.30  0.00  0.00  0.47  0.00
  GQ129                   1.00   0.04  0.00  0.00  0.96  0.00  0.00  0.00  0.48  0.00
  GQ130                   1.00   0.04  0.00  0.00  0.92  0.04  0.00  0.00  0.48  0.00
  GQ131                   1.00   0.04  0.00  0.00  0.92  0.04  0.00  0.00  0.60  0.00
  
  
  *************************
  Conduit Surcharge Summary
  *************************
  
  ----------------------------------------------------------------------------
                                                           Hours        Hours 
                         --------- Hours Full --------   Above Full   Capacity
  Conduit                Both Ends  Upstream  Dnstream   Normal Flow   Limited
  ----------------------------------------------------------------------------
  GQ1                         0.01      1.74      0.01      0.60         0.01
  GQ2                         0.64      0.64      0.96      0.04         0.01
  GQ4                         3.05      3.05      3.78      0.01         0.01
  GQ5                         1.99      1.99      3.76      0.01         0.01
  GQ6                         0.01      0.01      1.99      0.01         0.01
  GQ7                         2.48      2.48      2.81      0.01         0.01
  GQ8                         1.56      1.56      2.48      0.01         0.01
  GQ9                         1.56      1.56      3.83      0.01         0.01
  GQ10                        3.08      3.08      3.84      0.05         0.01
  GQ11                        0.01      0.01      0.98      0.01         0.01
  GQ12                        0.01      0.01      3.75      0.01         0.01
  GQ13                        0.01      0.01      2.84      0.01         0.01
  GQ15                        0.01      1.28      0.01      0.01         0.01
  GQ16                        0.01      1.69      0.01      0.01         0.01
  GQ18                        0.01      0.01      3.31      3.56         0.01
  GQ20                        0.01      0.01      1.85      0.01         0.01
  GQ21                        0.01      0.01      1.85      0.01         0.01
  GQ22                        0.01      0.01      1.62      0.01         0.01
  GQ23                        1.62      1.62      1.76      0.01         0.01
  GQ24                        1.82      1.82      3.80      0.01         0.01
  GQ25                        0.01      1.80      0.01      1.80         0.01
  GQ26                        0.01      0.01      1.90      0.01         0.01
  GQ27                        1.90      1.90      3.75      0.01         0.01
  GQ28                        0.01      0.01      3.76      0.01         0.01
  GQ29                        3.68      3.68      3.76      0.01         0.01
  GQ30                        3.75      3.75      3.78      0.01         0.01
  GQ31                        1.80      1.80      3.85      0.01         0.01
  GQ32                        1.65      2.12      1.65      0.54         0.13
  GQ33                        2.12      2.12      3.85      0.01         0.01
  GQ34                        0.98      0.98      2.12      0.01         0.01
  GQ35                        2.04      2.08      2.12      0.12         0.01
  GQ36                        2.05      2.08      2.07      0.71         0.60
  GQ37                        1.65      1.65      3.83      0.01         0.01
  GQ38                        0.01      0.01      3.83      0.01         0.01
  GQ39                        1.92      1.92      3.75      0.01         0.01
  GQ40                        1.65      1.65      1.92      0.01         0.01
  GQ41                        1.69      1.69      3.76      0.01         0.01
  GQ42                        2.42      2.42      3.77      0.01         0.01
  GQ43                        2.16      2.16      2.42      0.03         0.01
  GQ44                        2.92      2.92      3.31      0.01         0.01
  GQ45                        0.01      0.01      2.52      0.01         0.01
  GQ46                        2.52      2.52      2.92      0.01         0.01
  GQ47                        0.01      0.01      3.81      0.01         0.01
  GQ48                        0.01      0.01      3.81      0.01         0.01
  GQ49                        0.01      0.01      3.81      0.01         0.01
  GQ50                        0.01      0.01      1.90      0.01         0.01
  GQ51                        1.74      1.90      1.74      1.97         1.74
  GQ52                        1.60      1.60      3.68      1.53         1.53
  GQ53                        2.31      2.31      3.76      0.01         0.01
  GQ54                        0.01      0.01      3.82      0.01         0.01
  GQ55                        0.01      0.01      3.82      0.01         0.01
  GQ56                        2.16      2.20      2.48      0.19         0.04
  GQ57                        0.67      0.67      2.20      0.01         0.01
  GQ58                        0.67      0.67      3.75      0.01         0.01
  GQ59                        2.42      2.42      3.75      0.01         0.01
  GQ60                        1.93      1.93      2.39      0.01         0.01
  GQ61                        0.01      0.01      3.65      0.01         0.01
  GQ62                        0.01      0.01      3.67      0.01         0.01
  GQ63                        0.01      0.01      3.67      0.01         0.01
  GQ65                        0.01      0.01      1.61      0.01         0.01
  GQ66                        0.01      0.01      3.69      0.01         0.01
  GQ67                        3.66      3.66      3.67      0.01         0.01
  GQ68                        0.01      0.01      3.73      0.01         0.01
  GQ69                        0.93      0.93      3.80      0.09         0.01
  GQ74                        0.01      0.01      0.96      0.01         0.01
  GQ75                        0.01      0.01      3.73      0.01         0.01
  GQ76                        0.96      0.96      1.45      1.45         0.96
  GQ77                        0.01      0.01      2.60      0.01         0.01
  GQ78                        2.18      2.18      3.82      0.01         0.01
  GQ79                        0.01      0.01      3.82      0.01         0.01
  GQ80                        2.18      2.18      3.66      0.01         0.01
  GQ81                        3.59      3.66      3.75      3.34         0.40
  GQ82                        0.01      0.01      3.75      0.01         0.01
  GQ83                        0.01      0.01      1.81      0.01         0.01
  GQ84                        1.86      1.86      2.37      0.04         0.01
  GQ85                        1.86      1.86      3.88      0.01         0.01
  GQ86                        0.01      0.01      3.83      0.01         0.01
  GQ87                        0.01      0.01      3.83      0.01         0.01
  GQ88                        0.01      0.01      3.82      0.01         0.01
  GQ89                        0.97      0.97      3.75      0.01         0.01
  GQ90                        0.01      0.01      3.71      0.01         0.01
  GQ91                        0.97      0.97      3.77      0.01         0.01
  GQ92                        1.81      1.86      1.90      1.81         1.71
  GQ93                        1.90      1.90      2.13      0.01         0.01
  GQ94                        2.10      2.13      2.16      2.11         2.04
  GQ95                        0.01      0.01      3.85      0.01         0.01
  GQ96                        1.83      1.86      1.86      1.88         1.77
  GQ97                        0.98      1.49      0.98      1.65         0.98
  GQ98                        0.98      0.98      3.80      0.01         0.01
  GQ99                        0.01      0.01      3.68      0.01         0.01
  GQ100                       0.01      1.73      0.01      1.69         0.01
  GQ101                       0.01      0.01      3.77      0.01         0.01
  GQ102                       0.01      0.01      3.77      0.01         0.01
  GQ103                       1.77      1.77      3.79      0.01         0.01
  GQ104                       1.65      1.65      3.79      0.04         0.01
  GQ105                       3.75      3.75      3.77      3.33         0.01
  GQ106                       0.01      0.01      3.76      0.01         0.01
  GQ107                       1.92      1.92      3.76      0.01         0.01
  GQ108                       3.38      3.38      3.75      0.01         0.01
  GQ109                       0.84      0.84      1.92      0.01         0.01
  GQ110                       0.01      0.01      3.73      0.01         0.01
  GQ111                       0.84      0.84      3.77      0.01         0.01
  GQ112                       0.01      0.01      0.69      0.01         0.01
  GQ113                       0.01      0.72      0.01      0.93         0.01
  GQ114                       0.01      0.01      3.83      0.01         0.01
  GQ116                       0.01      0.01      3.83      0.01         0.01
  GQ117                       0.01      1.53      0.01      0.01         0.01
  GQ118                       0.01      0.01      1.53      0.01         0.01
  GQ119                       2.23      2.23      3.79      0.01         0.01
  GQ120                       0.01      0.01      3.77      0.01         0.01
  GQ121                       3.75      3.75      3.79      0.01         0.01
  GQ122                       0.01      0.01      3.75      0.01         0.01
  GQ123                       0.01      0.01      3.75      0.01         0.01
  GQ124                       0.01      0.01      1.55      0.01         0.01
  GQ125                       1.48      1.48      3.77      0.01         0.01
  GQ126                       0.93      0.93      3.77      0.01         0.01
  GQ127                       2.16      2.16      2.23      0.09         0.09
  GQ128                       0.69      0.69      2.03      0.01         0.01
  GQ129                       2.81      2.81      3.80      0.01         0.01
  GQ130                       2.94      2.94      3.89      0.01         0.01
  GQ131                       1.90      1.90      3.86      0.01         0.01
  

  Analysis begun on:  Wed Mar 29 19:39:16 2023
  Analysis ended on:  Wed Mar 29 19:39:31 2023
  Total elapsed time: 00:00:15