
  OWA STORM WATER MANAGEMENT MODEL - VERSION v5.1.14 (OWA 2022-07-31)
  --------------------------------------------------------------

  INP file created by DSDAConvertToSwmmTools 
  version 0.0.1 EcoVista 
  Title/Notes: 
  
  
  *********************************************************
  NOTE: The summary statistics displayed in this report are
  based on results found at every computational time step,  
  not just on results from each reporting time step.
  *********************************************************
  
  ****************
  Analysis Options
  ****************
  Flow Units ............... CMS
  Process Models:
    Rainfall/Runoff ........ YES
    RDII ................... NO
    Snowmelt ............... NO
    Groundwater ............ NO
    Flow Routing ........... YES
    Ponding Allowed ........ NO
    Water Quality .......... NO
  Infiltration Method ...... GREEN_AMPT
  Flow Routing Method ...... DYNWAVE
  Surcharge Method ......... EXTRAN
  Starting Date ............ 07/15/2020 00:00:00
  Ending Date .............. 07/15/2020 14:00:00
  Antecedent Dry Days ...... 0.0
  Report Time Step ......... 00:30:00
  Wet Time Step ............ 00:05:00
  Dry Time Step ............ 01:00:00
  Routing Time Step ........ 30.00 sec
  Variable Time Step ....... YES
  Maximum Trials ........... 8
  Number of Threads ........ 1
  Head Tolerance ........... 0.001500 m
  
  
  **************************        Volume         Depth
  Runoff Quantity Continuity     hectare-m            mm
  **************************     ---------       -------
  Total Precipitation ......       437.617       109.500
  Evaporation Loss .........         5.047         1.263
  Infiltration Loss ........       116.802        29.226
  Surface Runoff ...........       309.133        77.351
  Final Storage ............         7.073         1.770
  Continuity Error (%) .....        -0.100
  
  
  **************************        Volume        Volume
  Flow Routing Continuity        hectare-m      10^6 ltr
  **************************     ---------     ---------
  Dry Weather Inflow .......         0.000         0.000
  Wet Weather Inflow .......       309.048      3090.514
  Groundwater Inflow .......         0.000         0.000
  RDII Inflow ..............         0.000         0.000
  External Inflow ..........         0.000         0.001
  External Outflow .........        22.020       220.202
  Flooding Loss ............       285.618      2856.213
  Evaporation Loss .........         0.000         0.000
  Exfiltration Loss ........         0.000         0.000
  Initial Stored Volume ....         0.000         0.000
  Final Stored Volume ......         1.265        12.653
  Continuity Error (%) .....         0.047
  
  
  *************************
  Highest Continuity Errors
  *************************
  Node jd51 (1.87%)
  Node jd59 (1.63%)
  Node jd31 (1.60%)
  Node jd64 (1.43%)
  Node jd41 (1.39%)
  
  
  ***************************
  Time-Step Critical Elements
  ***************************
  Link GQ73 (96.48%)
  
  
  ********************************
  Highest Flow Instability Indexes
  ********************************
  Link GQ67 (17)
  Link GQ29 (8)
  Link GQ96 (6)
  Link GQ121 (6)
  Link GQ92 (5)
  
  
  *************************
  Routing Time Step Summary
  *************************
  Minimum Time Step           :     1.16 sec
  Average Time Step           :     7.46 sec
  Maximum Time Step           :    30.00 sec
  Percent in Steady State     :    -0.00
  Average Iterations per Step :     4.25
  Percent Not Converging      :    17.41
  
  
  ***************************
  Subcatchment Runoff Summary
  ***************************
  
  ------------------------------------------------------------------------------------------------------------------------------
                            Total      Total      Total      Total     Imperv       Perv      Total       Total     Peak  Runoff
                           Precip      Runon       Evap      Infil     Runoff     Runoff     Runoff      Runoff   Runoff   Coeff
  Subcatchment                 mm         mm         mm         mm         mm         mm         mm    10^6 ltr      CMS
  ------------------------------------------------------------------------------------------------------------------------------
  1                        109.50       0.00       0.82      61.27      46.56       0.00      46.56       18.43     1.67   0.425
  2                        109.50       0.00       1.35      23.28      82.93       0.00      82.93       74.99     6.81   0.757
  3                        109.50       0.00       1.39      19.95      86.34       0.00      86.34       34.55     3.13   0.789
  4                        109.50       0.00       1.43      17.14      89.19       0.00      89.19        7.49     0.68   0.815
  5                        109.50       0.00       1.28      27.85      78.84       0.00      78.84        9.75     0.88   0.720
  6                        109.50       0.00       1.23      31.34      75.51       0.00      75.51        7.02     0.63   0.690
  7                        109.50       0.00       1.28      27.98      78.49       0.00      78.49       34.22     3.11   0.717
  8                        109.50       0.00       1.58       6.12      99.66       0.00      99.66       13.88     1.26   0.910
  9                        109.50       0.00       1.63       3.06     102.66       0.00     102.66       12.01     1.09   0.938
  10                       109.50       0.00       1.42      17.79      88.45       0.00      88.45       19.93     1.81   0.808
  11                       109.50       0.00       1.52      10.45      95.44       0.00      95.44       47.32     4.29   0.872
  12                       109.50       0.00       1.23      31.44      75.27       0.00      75.27       36.73     3.33   0.687
  13                       109.50       0.00       1.50      11.79      94.17       0.00      94.17       42.59     3.86   0.860
  14                       109.50       0.00       1.50      11.93      94.14       0.00      94.14       17.76     1.61   0.860
  15                       109.50       0.00       1.40      19.23      87.04       0.00      87.04       29.42     2.67   0.795
  16                       109.50       0.00       1.45      15.89      90.23       0.00      90.23       26.65     2.42   0.824
  17                       109.50       0.00       1.37      21.83      84.52       0.00      84.52       35.37     3.21   0.772
  18                       109.50       0.00       1.55       8.61      97.22       0.00      97.22       40.14     3.64   0.888
  19                       109.50       0.00       1.54       9.00      96.82       0.00      96.82       21.77     1.98   0.884
  20                       109.50       0.00       1.54       9.60      96.10       0.00      96.10       51.57     4.69   0.878
  21                       109.50       0.00       1.62       3.22     102.39       0.00     102.39       32.13     2.92   0.935
  22                       109.50       0.00       1.60       5.16     100.49       0.00     100.49       12.36     1.12   0.918
  23                       109.50       0.00       1.48      13.38      92.57       0.00      92.57       52.99     4.81   0.845
  24                       109.50       0.00       1.44      16.70      89.35       0.00      89.35       15.84     1.44   0.816
  25                       109.50       0.00       1.53      10.26      95.71       0.00      95.71       19.38     1.76   0.874
  26                       109.50       0.00       1.32      24.95      81.35       0.00      81.35       28.55     2.59   0.743
  27                       109.50       0.00       1.55       8.19      97.46       0.00      97.46       41.19     3.74   0.890
  28                       109.50       0.00       1.58       6.03      99.61       0.00      99.61       47.09     4.28   0.910
  29                       109.50       0.00       1.43      16.97      89.28       0.00      89.28       20.84     1.89   0.815
  30                       109.50       0.00       1.62       3.69     102.17       0.00     102.17        7.33     0.66   0.933
  31                       109.50       0.00       1.64       2.30     103.32       0.00     103.32       22.77     2.07   0.944
  32                       109.50       0.00       1.60       4.87     100.81       0.00     100.81       43.56     3.95   0.921
  33                       109.50       0.00       1.62       3.56     102.04       0.00     102.04       35.95     3.26   0.932
  34                       109.50       0.00       1.51      11.07      94.86       0.00      94.86       27.81     2.52   0.866
  35                       109.50       0.00       1.55       8.25      97.56       0.00      97.56       40.47     3.67   0.891
  36                       109.50       0.00       1.31      26.05      80.50       0.00      80.50       31.68     2.87   0.735
  37                       109.50       0.00       1.59       5.90      99.82       0.00      99.82       22.15     2.01   0.912
  38                       109.50       0.00       1.50      12.38      93.62       0.00      93.62       35.71     3.24   0.855
  39                       109.50       0.00       1.37      21.75      84.63       0.00      84.63       35.74     3.24   0.773
  40                       109.50       0.00       1.50      11.83      94.14       0.00      94.14       21.52     1.95   0.860
  41                       109.50       0.00       1.53       9.63      96.34       0.00      96.34       19.00     1.72   0.880
  42                       109.50       0.00       1.53       9.72      96.02       0.00      96.02       23.71     2.15   0.877
  43                       109.50       0.00       1.31      25.57      80.83       0.00      80.83       63.89     5.80   0.738
  44                       109.50       0.00       1.39      19.94      86.24       0.00      86.24       41.68     3.78   0.788
  45                       109.50       0.00       1.32      25.36      81.07       0.00      81.07       58.66     5.32   0.740
  46                       109.50       0.00       1.28      28.26      78.41       0.00      78.41       39.20     3.55   0.716
  47                       109.50       0.00       1.33      24.18      82.21       0.00      82.21       95.84     8.70   0.751
  48                       109.50       0.00       1.56       7.57      98.03       0.00      98.03       56.89     5.17   0.895
  49                       109.50       0.00       1.44      16.20      89.75       0.00      89.75       60.76     5.52   0.820
  50                       109.50       0.00       1.58       6.16      99.26       0.00      99.26       39.01     3.55   0.907
  51                       109.50       0.00       1.52      10.62      95.01       0.00      95.01       17.78     1.62   0.868
  52                       109.50       0.00       0.82      61.35      46.52       0.00      46.52       47.75     4.31   0.425
  53                       109.50       0.00       1.12      39.82      67.28       0.00      67.28       71.66     6.49   0.614
  54                       109.50       0.00       1.34      23.55      82.88       0.00      82.88       20.21     1.83   0.757
  55                       109.50       0.00       0.83      60.23      47.60       0.00      47.60       37.56     3.39   0.435
  56                       109.50       0.00       0.41      90.83      18.04       0.00      18.04       14.70     1.32   0.165
  57                       109.50       0.00       1.50      12.18      93.62       0.00      93.62       77.78     7.07   0.855
  58                       109.50       0.00       1.40      19.32      86.95       0.00      86.95       14.31     1.30   0.794
  59                       109.50       0.00       1.37      21.47      85.01       0.00      85.01       10.82     0.98   0.776
  60                       109.50       0.00       0.61      76.42      31.98       0.00      31.98        9.16     0.83   0.292
  61                       109.50       0.00       0.86      58.13      49.53       0.00      49.53       18.66     1.69   0.452
  62                       109.50       0.00       1.14      38.05      68.84       0.00      68.84       80.67     7.32   0.629
  63                       109.50       0.00       1.50      12.05      93.64       0.00      93.64      181.10    16.47   0.855
  64                       109.50       0.00       1.16      36.77      70.20       0.00      70.20       15.07     1.36   0.641
  65                       109.50       0.00       1.52      10.67      95.00       0.00      95.00       63.89     5.81   0.868
  66                       109.50       0.00       1.23      31.63      74.98       0.00      74.98       19.10     1.73   0.685
  67                       109.50       0.00       1.16      36.72      70.30       0.00      70.30       22.73     2.06   0.642
  68                       109.50       0.00       1.36      22.22      84.20       0.00      84.20        9.36     0.85   0.769
  69                       109.50       0.00       0.86      58.21      49.64       0.00      49.64       15.88     1.43   0.453
  70                       109.50       0.00       1.15      37.38      69.53       0.00      69.53       57.20     5.19   0.635
  71                       109.50       0.00       1.38      20.44      85.90       0.00      85.90       10.54     0.96   0.784
  72                       109.50       0.00       1.45      15.61      90.56       0.00      90.56       11.28     1.02   0.827
  73                       109.50       0.00       1.33      24.42      82.14       0.00      82.14       13.65     1.24   0.750
  74                       109.50       0.00       1.27      28.40      78.28       0.00      78.28       16.85     1.53   0.715
  75                       109.50       0.00       1.40      19.37      86.95       0.00      86.95       12.53     1.14   0.794
  76                       109.50       0.00       1.46      14.69      91.49       0.00      91.49        8.86     0.80   0.836
  77                       109.50       0.00       1.55       8.41      97.46       0.00      97.46       10.55     0.96   0.890
  78                       109.50       0.00       1.50      11.97      94.01       0.00      94.01       10.33     0.94   0.859
  79                       109.50       0.00       0.74      66.64      41.43       0.00      41.43       43.93     3.97   0.378
  80                       109.50       0.00       1.27      28.85      77.67       0.00      77.67       48.62     4.41   0.709
  81                       109.50       0.00       1.29      27.59      78.88       0.00      78.88       34.38     3.12   0.720
  82                       109.50       0.00       1.24      31.05      75.55       0.00      75.55       69.27     6.29   0.690
  83                       109.50       0.00       1.51      11.47      94.56       0.00      94.56       11.56     1.05   0.864
  84                       109.50       0.00       1.43      16.98      89.18       0.00      89.18       10.65     0.97   0.814
  85                       109.50       0.00       1.66       0.83     104.84       0.00     104.84        9.75     0.88   0.957
  86                       109.50       0.00       1.54       9.23      96.67       0.00      96.67       14.24     1.29   0.883
  87                       109.50       0.00       1.64       2.34     103.23       0.00     103.23       13.58     1.23   0.943
  88                       109.50       0.00       1.48      13.64      92.48       0.00      92.48        8.86     0.80   0.845
  89                       109.50       0.00       1.55       8.79      97.13       0.00      97.13       18.71     1.70   0.887
  90                       109.50       0.00       1.67       0.02     105.70       0.00     105.70        1.21     0.11   0.965
  91                       109.50       0.00       1.41      18.32      87.71       0.00      87.71       19.13     1.74   0.801
  92                       109.50       0.00       1.55       8.51      97.37       0.00      97.37       12.17     1.10   0.889
  93                       109.50       0.00       1.29      27.17      79.37       0.00      79.37       40.62     3.68   0.725
  94                       109.50       0.00       1.18      35.42      71.63       0.00      71.63        5.02     0.45   0.654
  95                       109.50       0.00       1.67       0.12     105.51       0.00     105.51        2.30     0.21   0.964
  96                       109.50       0.00       1.37      21.18      85.22       0.00      85.22       10.41     0.94   0.778
  97                       109.50       0.00       1.64       2.32     103.35       0.00     103.35       10.27     0.93   0.944
  98                       109.50       0.00       1.38      20.66      85.74       0.00      85.74       10.57     0.96   0.783
  99                       109.50       0.00       0.76      65.43      42.62       0.00      42.62       15.82     1.43   0.389
  100                      109.50       0.00       0.83      60.52      47.38       0.00      47.38       12.16     1.10   0.433
  101                      109.50       0.00       0.85      59.32      48.50       0.00      48.50       23.76     2.15   0.443
  102                      109.50       0.00       1.28      27.81      78.79       0.00      78.79       19.21     1.74   0.720
  103                      109.50       0.00       0.53      82.10      26.51       0.00      26.51        9.64     0.87   0.242
  104                      109.50       0.00       0.41      90.92      17.93       0.00      17.93       17.37     1.56   0.164
  105                      109.50       0.00       1.40      19.42      86.93       0.00      86.93       11.37     1.03   0.794
  106                      109.50       0.00       0.83      60.64      47.23       0.00      47.23       11.52     1.04   0.431
  
  
  ******************
  Node Depth Summary
  ******************
  
  ---------------------------------------------------------------------------------
                                 Average  Maximum  Maximum  Time of Max    Reported
                                   Depth    Depth      HGL   Occurrence   Max Depth
  Node                 Type       Meters   Meters   Meters  days hr:min      Meters
  ---------------------------------------------------------------------------------
  jd1                  JUNCTION     0.17     0.32   273.32     0  10:00        0.32
  jd2                  JUNCTION     1.44     3.00   270.00     0  07:11        3.00
  jd3                  JUNCTION     2.72     3.00   266.00     0  04:04        3.00
  jd4                  JUNCTION     1.77     3.00   270.00     0  04:52        3.00
  jd5                  JUNCTION     0.12     0.22   274.22     0  10:00        0.22
  jd6                  JUNCTION     0.17     0.32   275.32     0  10:00        0.32
  jd7                  JUNCTION     0.46     0.81   264.91     0  10:00        0.81
  jd8                  JUNCTION     2.07     3.00   267.00     0  04:20        3.00
  jd9                  JUNCTION     1.83     3.00   268.00     0  04:31        3.00
  jd10                 JUNCTION     2.73     3.00   273.00     0  03:57        3.00
  jd11                 JUNCTION     0.15     0.28   282.28     0  10:00        0.28
  jd12                 JUNCTION     2.76     3.00   272.00     0  03:41        3.00
  jd13                 JUNCTION     0.20     0.40   289.40     0  10:00        0.40
  jd14                 JUNCTION     1.39     3.00   283.00     0  07:09        3.00
  jd15                 JUNCTION     0.81     3.00   281.00     0  07:28        2.23
  jd16                 JUNCTION     1.15     3.00   277.00     0  07:20        3.00
  jd17                 JUNCTION     2.31     3.00   278.80     0  04:24        3.00
  jd18                 JUNCTION     1.39     3.00   282.00     0  07:12        3.00
  jd19                 JUNCTION     1.64     3.00   270.00     0  04:49        3.00
  jd20                 JUNCTION     0.35     0.71   273.71     0  10:00        0.71
  jd21                 JUNCTION     2.72     3.00   273.00     0  04:24        3.00
  jd22                 JUNCTION     1.98     3.00   275.00     0  07:05        3.00
  jd23                 JUNCTION     1.34     3.00   281.00     0  07:13        3.00
  jd24                 JUNCTION     0.22     0.42   285.42     0  10:00        0.42
  jd25                 JUNCTION     1.32     3.00   282.00     0  07:15        3.00
  jd26                 JUNCTION     1.40     3.00   288.00     0  07:09        3.00
  jd27                 JUNCTION     1.32     3.00   294.00     0  07:14        3.00
  jd28                 JUNCTION     2.79     3.00   290.00     0  03:21        3.00
  jd29                 JUNCTION     0.15     0.28   299.28     0  10:00        0.28
  jd30                 JUNCTION     0.18     0.31   290.31     0  10:00        0.31
  jd31                 JUNCTION     1.66     3.00   275.00     0  04:24        3.00
  jd32                 JUNCTION     2.78     3.00   275.00     0  03:29        3.00
  jd33                 JUNCTION     0.32     0.66   289.66     0  10:00        0.66
  jd34                 JUNCTION     1.34     3.00   297.00     0  07:08        3.00
  jd35                 JUNCTION     2.83     3.00   292.00     0  02:57        3.00
  jd36                 JUNCTION     1.47     3.00   302.00     0  07:09        3.00
  jd37                 JUNCTION     1.46     3.00   306.00     0  07:07        3.00
  jd38                 JUNCTION     1.38     3.00   300.00     0  07:14        3.00
  jd39                 JUNCTION     2.73     3.00   297.00     0  04:03        3.00
  jd40                 JUNCTION     1.61     3.00   302.00     0  07:10        3.00
  jd41                 JUNCTION     2.66     3.00   296.00     0  04:35        3.00
  jd42                 JUNCTION     0.98     3.00   308.00     0  07:29        3.00
  jd43                 JUNCTION     1.56     3.00   300.00     0  07:07        3.00
  jd44                 JUNCTION     1.59     3.00   286.00     0  07:10        3.00
  jd45                 JUNCTION     2.77     3.00   282.00     0  03:41        3.00
  jd46                 JUNCTION     1.34     3.00   278.00     0  07:19        3.00
  jd47                 JUNCTION     0.23     0.44   315.44     0  10:00        0.44
  jd48                 JUNCTION     0.17     0.33   325.33     0  10:00        0.33
  jd49                 JUNCTION     1.33     3.00   292.00     0  07:15        3.00
  jd50                 JUNCTION     2.80     3.00   278.00     0  03:15        3.00
  jd51                 JUNCTION     2.64     3.00   313.00     0  04:39        3.00
  jd52                 JUNCTION     1.09     3.00   326.00     0  07:12        2.18
  jd53                 JUNCTION     1.48     3.00   325.00     0  07:12        3.00
  jd54                 JUNCTION     0.87     3.00   329.00     0  07:24        2.40
  jd55                 JUNCTION     1.97     3.00   325.00     0  07:06        3.00
  jd56                 JUNCTION     0.37     0.83   327.83     0  10:00        0.83
  jd59                 JUNCTION     2.62     3.00   320.80     0  04:43        3.00
  jd60                 JUNCTION     2.76     3.00   319.00     0  03:40        3.00
  jd61                 JUNCTION     0.73     3.00   332.00     0  07:32        3.00
  jd62                 JUNCTION     0.11     0.23   335.23     0  10:00        0.23
  jd63                 JUNCTION     0.10     0.20   324.20     0  10:00        0.20
  jd64                 JUNCTION     2.52     3.00   321.00     0  04:43        3.00
  jd65                 JUNCTION     2.02     3.00   307.00     0  04:32        3.00
  jd66                 JUNCTION     2.72     3.00   304.00     0  04:05        3.00
  jd69                 JUNCTION     1.25     3.00   336.00     0  07:15        3.00
  jd79                 JUNCTION     2.71     3.00   274.00     0  03:29        3.00
  jd80                 JUNCTION     2.37     3.00   279.00     0  04:19        3.00
  jd81                 JUNCTION     0.73     3.00   291.00     0  07:34        3.00
  jd83                 JUNCTION     2.83     3.00   323.00     0  02:59        3.00
  jd84                 JUNCTION     1.35     3.00   326.00     0  07:07        3.00
  jd85                 JUNCTION     2.72     3.00   324.00     0  04:03        3.00
  jd87                 JUNCTION     2.75     3.00   322.00     0  03:49        3.00
  jd89                 JUNCTION     1.15     3.00   327.00     0  07:17        3.00
  jd90                 JUNCTION     0.40     3.00   331.00     0  09:23        2.23
  jd92                 JUNCTION     0.88     3.00   329.00     0  07:14        2.85
  jd93                 JUNCTION     1.49     3.00   327.00     0  07:11        3.00
  jd94                 JUNCTION     1.11     3.00   329.20     0  07:12        2.42
  jd95                 JUNCTION     1.35     3.00   330.00     0  07:09        2.93
  jd96                 JUNCTION     2.75     3.00   308.00     0  03:48        3.00
  jd97                 JUNCTION     1.39     3.00   330.20     0  07:09        3.00
  jd98                 JUNCTION     1.14     3.00   332.00     0  07:12        3.00
  jd99                 JUNCTION     2.72     3.00   327.00     0  04:05        3.00
  jd101                JUNCTION     0.16     0.28   321.28     0  10:00        0.28
  jd102                JUNCTION     1.33     3.00   327.00     0  07:11        3.00
  jd103                JUNCTION     0.18     0.36   318.36     0  10:00        0.36
  jd106                JUNCTION     2.67     3.00   287.00     0  04:25        3.00
  jd107                JUNCTION     0.32     0.61   332.61     0  10:00        0.61
  jd108                JUNCTION     1.39     2.01   328.01     0  09:24        2.01
  jd109                JUNCTION     0.92     3.00   346.00     0  07:19        3.00
  jd110                JUNCTION     2.73     3.00   327.00     0  04:05        3.00
  jd111                JUNCTION     0.11     0.20   344.20     0  10:00        0.20
  jd112                JUNCTION     0.13     0.23   334.23     0  10:00        0.23
  jd113                JUNCTION     0.15     0.30   348.30     0  10:00        0.30
  jd114                JUNCTION     2.76     3.00   317.00     0  04:03        3.00
  jd117                JUNCTION     1.81     3.00   319.00     0  07:07        3.00
  jd118                JUNCTION     0.14     0.27   330.27     0  10:00        0.27
  jd120                JUNCTION     1.19     3.00   330.00     0  07:13        3.00
  jd121                JUNCTION     1.20     3.00   323.00     0  07:18        3.00
  jd122                JUNCTION     2.73     3.00   276.00     0  04:05        3.00
  jd123                JUNCTION     2.72     3.00   276.20     0  04:05        3.00
  jd124                JUNCTION     2.86     3.00   271.00     0  02:30        3.00
  jd125                JUNCTION     1.71     3.00   278.00     0  04:48        3.00
  jd126                JUNCTION     2.83     3.00   275.00     0  02:56        3.00
  jd135                JUNCTION     0.70     3.00   292.00     0  07:17        2.46
  jd136                JUNCTION     1.32     3.00   344.00     0  07:11        3.00
  psk1                 OUTFALL      0.13     0.23   279.23     0  10:00        0.23
  psk2                 OUTFALL      0.18     0.31   270.31     0  10:00        0.31
  psk3                 OUTFALL      0.53     1.00   272.00     0  07:17        1.00
  psk4                 OUTFALL      0.03     0.19   280.19     0  07:28        0.18
  psk5                 OUTFALL      0.17     0.32   263.32     0  10:00        0.32
  psk6                 OUTFALL      0.12     0.22   259.22     0  10:00        0.22
  psk7                 OUTFALL      0.46     0.81   262.81     0  10:00        0.81
  psk8                 OUTFALL      0.00     0.00   317.00     0  00:00        0.00
  
  
  *******************
  Node Inflow Summary
  *******************
  
  -------------------------------------------------------------------------------------------------
                                  Maximum  Maximum                  Lateral       Total        Flow
                                  Lateral    Total  Time of Max      Inflow      Inflow     Balance
                                   Inflow   Inflow   Occurrence      Volume      Volume       Error
  Node                 Type           CMS      CMS  days hr:min    10^6 ltr    10^6 ltr     Percent
  -------------------------------------------------------------------------------------------------
  jd1                  JUNCTION     1.667    2.076     0  10:00        18.4        24.5       0.034
  jd2                  JUNCTION     2.594    3.322     0  10:00        28.5        37.1       0.056
  jd3                  JUNCTION     3.107    4.825     0  10:00        34.2        65.8       0.608
  jd4                  JUNCTION     3.743    4.104     0  10:00        41.2        45.4       0.067
  jd5                  JUNCTION     1.089    1.548     0  10:00          12          18       0.008
  jd6                  JUNCTION     1.259    1.259     0  10:00        13.9        13.9       0.014
  jd7                  JUNCTION     0.635    4.125     0  10:00        7.01        58.8       0.067
  jd8                  JUNCTION     0.883    1.829     0  10:00        9.75        31.8       0.457
  jd9                  JUNCTION     0.678    1.745     0  10:00        7.48        30.1       0.055
  jd10                 JUNCTION     1.807    2.267     0  10:00        19.9        25.1       0.407
  jd11                 JUNCTION     2.668    2.668     0  10:00        29.4        29.4       0.011
  jd12                 JUNCTION     2.010    4.568     0  10:00        22.1        49.7       0.281
  jd13                 JUNCTION     3.643    3.643     0  10:00        40.1        40.1       0.017
  jd14                 JUNCTION     4.277    4.853     0  10:00        47.1        53.4       0.037
  jd15                 JUNCTION     1.757    2.536     0  07:28        19.4        32.3       0.078
  jd16                 JUNCTION     1.889    6.267     0  10:00        20.8        74.5       0.040
  jd17                 JUNCTION     3.953    7.070     0  10:00        43.5        87.6       0.648
  jd18                 JUNCTION     3.133    4.635     0  10:00        34.5        50.8       0.042
  jd19                 JUNCTION     2.908    5.010     0  10:00        32.1        58.5       0.055
  jd20                 JUNCTION     2.418    2.593     0  10:00        26.6        33.7       0.100
  jd21                 JUNCTION     1.122    4.579     0  10:00        12.4        62.9       0.536
  jd22                 JUNCTION     1.976    2.973     0  10:00        21.8        36.8       0.226
  jd23                 JUNCTION     1.953    4.751     0  10:00        21.5        57.6      -0.015
  jd24                 JUNCTION     3.207    3.207     0  10:00        35.4        35.4       0.015
  jd25                 JUNCTION     2.523    3.727     0  10:00        27.8        40.8       0.032
  jd26                 JUNCTION     3.672    5.162     0  10:00        40.5        59.7       0.038
  jd27                 JUNCTION     3.785    4.408     0  10:00        41.7          53       0.050
  jd28                 JUNCTION     5.172    6.098     0  10:00        56.9        70.5       0.192
  jd29                 JUNCTION     2.066    2.066     0  10:00        22.8        22.8      -0.000
  jd30                 JUNCTION     2.155    4.185     0  10:00        23.7        52.7       0.032
  jd31                 JUNCTION     1.439    2.190     0  10:00        15.8        27.6       1.621
  jd32                 JUNCTION     2.916    6.249     0  10:00        32.1        85.6       0.292
  jd33                 JUNCTION     2.871    3.952     0  10:00        31.7        46.6       0.029
  jd34                 JUNCTION     3.550    3.550     0  10:00        39.2        39.2       0.012
  jd35                 JUNCTION     3.240    5.421     0  10:00        35.7        73.5       0.182
  jd36                 JUNCTION     5.522    6.699     0  10:00        60.7        79.2       0.036
  jd37                 JUNCTION     5.799    5.799     0  10:00        63.9        63.9       0.039
  jd38                 JUNCTION     5.322    6.129     0  10:00        58.6        73.7       0.069
  jd39                 JUNCTION     3.684    7.203     0  10:00        40.6         100       0.510
  jd40                 JUNCTION     6.286    8.484     0  10:00        69.3         109       0.074
  jd41                 JUNCTION     4.413   12.428     0  10:00        48.6         153       1.407
  jd42                 JUNCTION     5.810    6.366     0  10:00        63.9          70       0.044
  jd43                 JUNCTION     6.485    9.278     0  10:00        71.6         109       0.067
  jd44                 JUNCTION     8.695   11.572     0  10:00        95.8         149       0.057
  jd45                 JUNCTION     3.550    5.775     0  10:00          39        81.3       0.395
  jd46                 JUNCTION     1.617    1.617     0  10:00        17.8        17.8       0.149
  jd47                 JUNCTION     5.186    5.186     0  10:00        57.2        57.2       0.012
  jd48                 JUNCTION     1.433    1.433     0  10:00        15.9        15.9       0.011
  jd49                 JUNCTION     7.069    7.069     0  10:00        77.8        77.8       0.035
  jd50                 JUNCTION     7.317   11.248     0  10:00        80.6         153       0.285
  jd51                 JUNCTION     1.526    6.335     0  10:00        16.8        73.2       1.907
  jd52                 JUNCTION     3.121    7.016     0  07:12        34.4        62.5       0.129
  jd53                 JUNCTION     1.738    6.293     0  10:00        19.1        76.3       0.020
  jd54                 JUNCTION     0.931    4.228     0  10:00        10.3        49.1       0.027
  jd55                 JUNCTION     1.696    7.623     0  10:00        18.7        80.4       0.918
  jd56                 JUNCTION     1.030    2.872     0  10:00        11.4        32.6       0.028
  jd59                 JUNCTION     1.023    3.821     0  10:00        11.3        47.1       1.661
  jd60                 JUNCTION     1.832    3.877     0  10:00        20.2        43.4       0.301
  jd61                 JUNCTION     2.056    2.445     0  10:00        22.7        26.7       0.019
  jd62                 JUNCTION     0.826    1.090     0  10:00        9.16        11.5      -0.001
  jd63                 JUNCTION     1.135    1.135     0  10:00        12.5        12.5       0.015
  jd64                 JUNCTION     0.957    2.364     0  10:00        10.5          26       1.451
  jd65                 JUNCTION    16.471   16.471     0  10:00         181         181       0.027
  jd66                 JUNCTION     2.147    4.949     0  10:00        23.8        60.8       0.522
  jd69                 JUNCTION     3.967    3.967     0  10:00        43.9        44.2       0.027
  jd79                 JUNCTION     3.864    4.780     0  10:00        42.6        57.9       0.307
  jd80                 JUNCTION     4.294    4.901     0  10:00        47.3        56.6       0.177
  jd81                 JUNCTION     3.264    3.264     0  10:00        35.9        35.9       0.005
  jd83                 JUNCTION     3.395    3.973     0  10:00        37.5        45.8       0.193
  jd84                 JUNCTION     4.314    4.314     0  10:00        47.7        47.7       0.023
  jd85                 JUNCTION     0.980    1.839     0  10:00        10.8        19.9       0.434
  jd87                 JUNCTION     0.803    1.929     0  10:00        8.86        21.7       0.346
  jd89                 JUNCTION     0.937    0.937     0  10:00        10.3        10.3       0.031
  jd90                 JUNCTION     0.955    0.955     0  10:00        10.5        10.5       0.011
  jd92                 JUNCTION     0.803    0.803     0  10:00        8.85        8.85       0.012
  jd93                 JUNCTION     1.734    2.733     0  10:00        19.1        33.2       0.035
  jd94                 JUNCTION     0.110    1.392     0  07:12        1.21        14.2      -0.020
  jd95                 JUNCTION     0.209    1.301     0  07:12         2.3          13       0.110
  jd96                 JUNCTION     1.565    2.091     0  10:00        17.4        23.1       0.426
  jd97                 JUNCTION     1.690    1.690     0  10:00        18.7        18.7       0.020
  jd98                 JUNCTION     0.943    0.943     0  10:00        10.4        10.4       0.022
  jd99                 JUNCTION     0.454    0.824     0  10:00        5.02        10.6       0.535
  jd101                JUNCTION     1.236    1.947     0  10:00        13.6        23.4       0.011
  jd102                JUNCTION     1.232    1.232     0  10:00        13.6        13.6       0.027
  jd103                JUNCTION     0.848    0.848     0  10:00        9.35        9.35       0.010
  jd106                JUNCTION     0.663    3.565     0  10:00        7.32        40.5       0.960
  jd107                JUNCTION     0.957    2.867     0  10:00        10.6        33.5       0.042
  jd108                JUNCTION     1.041    1.041     0  10:00        11.5        11.5       0.561
  jd109                JUNCTION     1.741    1.741     0  10:00        19.2        19.2      -0.001
  jd110                JUNCTION     1.322    1.966     0  10:00        14.7        21.8       0.704
  jd111                JUNCTION     1.097    1.097     0  10:00        12.2        12.2      -0.002
  jd112                JUNCTION     1.292    2.855     0  10:00        14.2        34.9       0.015
  jd113                JUNCTION     0.868    0.868     0  10:00        9.64        9.64      -0.010
  jd114                JUNCTION     1.048    4.764     0  10:00        11.6        73.6       0.431
  jd117                JUNCTION     0.966    2.877     0  10:00        10.6        33.1       0.483
  jd118                JUNCTION     0.884    0.884     0  10:00        9.75        9.75       0.003
  jd120                JUNCTION     1.104    1.104     0  10:00        12.2        12.2       0.014
  jd121                JUNCTION     1.365    1.365     0  10:00        15.1        15.1       0.018
  jd122                JUNCTION     3.239    8.774     0  10:00        35.7         113       0.500
  jd123                JUNCTION     3.329    6.088     0  10:00        36.7        88.9       0.796
  jd124                JUNCTION     4.811    5.884     0  10:00          53        78.7       0.077
  jd125                JUNCTION     4.687    6.362     0  10:00        51.6        88.2       0.031
  jd126                JUNCTION     6.815    7.677     0  10:00          75        89.1       0.117
  jd135                JUNCTION     1.722    1.722     0  10:00          19          19       0.006
  jd136                JUNCTION     1.428    2.296     0  10:00        15.8        25.5       0.028
  psk1                 OUTFALL      0.000    1.398     0  10:00           0        16.9       0.000
  psk2                 OUTFALL      0.000    3.238     0  10:00           0        40.2       0.000
  psk3                 OUTFALL      0.000    5.968     0  07:57           0        73.5       0.000
  psk4                 OUTFALL      0.000    0.263     0  07:28           0       0.991       0.000
  psk5                 OUTFALL      0.000    1.348     0  10:00           0        15.9       0.000
  psk6                 OUTFALL      0.000    1.187     0  10:00           0        13.8       0.000
  psk7                 OUTFALL      0.000    4.125     0  10:00           0        58.8       0.000
  psk8                 OUTFALL      0.000    0.000     0  00:00           0           0       0.000 ltr
  
  
  **********************
  Node Surcharge Summary
  **********************
  
  Surcharging occurs when water rises above the top of the highest conduit.
  ---------------------------------------------------------------------
                                               Max. Height   Min. Depth
                                   Hours       Above Crown    Below Rim
  Node                 Type      Surcharged         Meters       Meters
  ---------------------------------------------------------------------
  jd2                  JUNCTION        3.21          2.200        0.000
  jd3                  JUNCTION        9.94          2.200        0.000
  jd4                  JUNCTION        4.56          2.200        0.000
  jd8                  JUNCTION        8.05          2.200        0.000
  jd9                  JUNCTION        5.14          2.200        0.000
  jd10                 JUNCTION       10.06          2.400        0.000
  jd12                 JUNCTION       10.33          2.400        0.000
  jd14                 JUNCTION        3.11          2.400        0.000
  jd15                 JUNCTION        2.59          2.000        0.000
  jd16                 JUNCTION        2.76          2.000        0.000
  jd17                 JUNCTION        8.30          2.200        0.000
  jd18                 JUNCTION        3.06          2.000        0.000
  jd19                 JUNCTION        4.19          2.200        0.000
  jd21                 JUNCTION       10.05          2.200        0.000
  jd22                 JUNCTION        9.68          2.400        0.000
  jd23                 JUNCTION        3.00          2.000        0.000
  jd25                 JUNCTION        2.89          2.000        0.000
  jd26                 JUNCTION        3.12          2.400        0.000
  jd27                 JUNCTION        2.93          2.400        0.000
  jd28                 JUNCTION       10.65          2.400        0.000
  jd31                 JUNCTION        9.59          2.200        0.000
  jd32                 JUNCTION       10.53          2.200        0.000
  jd34                 JUNCTION        3.00          2.400        0.000
  jd35                 JUNCTION       11.05          2.400        0.000
  jd36                 JUNCTION        3.34          2.400        0.000
  jd37                 JUNCTION        3.29          2.400        0.000
  jd38                 JUNCTION        2.94          2.000        0.000
  jd39                 JUNCTION        9.96          2.000        0.000
  jd40                 JUNCTION        3.78          2.200        0.000
  jd41                 JUNCTION        9.42          1.000        0.000
  jd42                 JUNCTION        2.59          2.200        0.000
  jd43                 JUNCTION        3.41          2.200        0.000
  jd44                 JUNCTION        3.58          2.000        0.000
  jd45                 JUNCTION       10.32          2.000        0.000
  jd46                 JUNCTION        2.91          2.200        0.000
  jd49                 JUNCTION        2.89          2.200        0.000
  jd50                 JUNCTION       10.75          2.200        0.000
  jd51                 JUNCTION        9.36          1.350        0.000
  jd52                 JUNCTION        3.17          1.500        0.000
  jd53                 JUNCTION        3.25          1.800        0.000
  jd54                 JUNCTION        2.67          1.800        0.000
  jd55                 JUNCTION        3.88          1.500        0.000
  jd59                 JUNCTION        9.28          1.500        0.000
  jd60                 JUNCTION       10.35          2.400        0.000
  jd61                 JUNCTION        1.43          2.400        0.000
  jd64                 JUNCTION        9.30          1.800        0.000
  jd65                 JUNCTION        5.64          2.400        0.000
  jd66                 JUNCTION        9.92          2.200        0.000
  jd69                 JUNCTION        2.81          2.200        0.000
  jd79                 JUNCTION       10.53          2.400        0.000
  jd80                 JUNCTION        8.89          2.400        0.000
  jd81                 JUNCTION        1.39          2.400        0.000
  jd83                 JUNCTION       11.02          2.400        0.000
  jd84                 JUNCTION        3.03          2.400        0.000
  jd85                 JUNCTION        9.96          2.400        0.000
  jd87                 JUNCTION       10.19          2.400        0.000
  jd89                 JUNCTION        2.79          2.400        0.000
  jd90                 JUNCTION        0.63          2.400        0.000
  jd92                 JUNCTION        2.82          2.400        0.000
  jd93                 JUNCTION        3.34          2.200        0.000
  jd94                 JUNCTION        3.12          2.200        0.000
  jd95                 JUNCTION        3.07          2.200        0.000
  jd96                 JUNCTION       10.20          2.200        0.000
  jd97                 JUNCTION        3.08          2.200        0.000
  jd98                 JUNCTION        2.87          2.400        0.000
  jd99                 JUNCTION        9.91          2.400        0.000
  jd102                JUNCTION        2.97          2.400        0.000
  jd106                JUNCTION        9.58          2.000        0.000
  jd108                JUNCTION       10.22          1.012        0.988
  jd109                JUNCTION        2.04          2.400        0.000
  jd110                JUNCTION        9.91          2.000        0.000
  jd114                JUNCTION       10.34          2.000        0.000
  jd117                JUNCTION        9.94          2.200        0.000
  jd120                JUNCTION        2.86          2.400        0.000
  jd121                JUNCTION        2.77          2.400        0.000
  jd122                JUNCTION       10.06          2.200        0.000
  jd123                JUNCTION        9.91          2.200        0.000
  jd124                JUNCTION       11.51          2.400        0.000
  jd125                JUNCTION        4.50          2.200        0.000
  jd126                JUNCTION       11.08          2.400        0.000
  jd135                JUNCTION        2.76          2.400        0.000
  jd136                JUNCTION        2.88          2.200        0.000
  
  
  *********************
  Node Flooding Summary
  *********************
  
  Flooding refers to all water that overflows a node, whether it ponds or not.
  --------------------------------------------------------------------------
                                                             Total   Maximum
                                 Maximum   Time of Max       Flood    Ponded
                        Hours       Rate    Occurrence      Volume     Depth
  Node                 Flooded       CMS   days hr:min    10^6 ltr    Meters
  --------------------------------------------------------------------------
  jd2                     3.04     2.113      0  10:00      17.573     0.000
  jd3                     9.93     4.825      0  10:00      65.422     0.000
  jd4                     4.03     3.594      0  10:00      33.297     0.000
  jd8                     3.49     0.813      0  10:00       6.983     0.000
  jd9                     3.42     1.255      0  07:06       8.009     0.000
  jd10                   10.05     2.267      0  10:00      24.997     0.000
  jd12                   10.31     4.568      0  10:00      49.542     0.000
  jd14                    3.03     3.219      0  10:00      26.331     0.000
  jd15                    0.01     0.412      0  07:28       0.002     0.000
  jd16                    1.43     0.899      0  07:20       1.019     0.000
  jd17                    5.07     6.241      0  10:00      62.929     0.000
  jd18                    2.97     3.111      0  10:00      26.168     0.000
  jd19                    3.25     3.943      0  10:00      35.856     0.000
  jd21                    9.59     4.579      0  10:00      62.203     0.000
  jd22                    3.35     2.149      0  10:00      20.552     0.000
  jd23                    2.86     1.735      0  10:00      15.359     0.000
  jd25                    2.80     1.629      0  07:15       5.778     0.000
  jd26                    3.06     3.266      0  10:00      28.386     0.000
  jd27                    2.85     1.529      0  10:00      10.618     0.000
  jd28                   10.65     6.098      0  10:00      70.347     0.000
  jd31                    0.75     0.667      0  04:24       0.113     0.000
  jd32                   10.52     6.249      0  10:00      85.376     0.000
  jd34                    2.95     1.721      0  10:00      13.351     0.000
  jd35                   11.04     5.421      0  10:00      73.372     0.000
  jd36                    3.21     4.642      0  10:00      40.917     0.000
  jd37                    3.19     4.452      0  10:00      38.963     0.000
  jd38                    2.84     1.938      0  10:00      12.931     0.000
  jd39                    9.95     7.203      0  10:00      99.726     0.000
  jd40                    3.51     5.922      0  10:00      55.671     0.000
  jd41                    9.41    12.428      0  10:00     150.455     0.000
  jd42                    1.58     1.009      0  10:00       3.823     0.000
  jd43                    3.34     7.447      0  10:00      70.764     0.000
  jd44                    3.27     7.671      0  10:00      69.815     0.000
  jd45                   10.32     5.775      0  10:00      80.971     0.000
  jd46                    2.81     0.866      0  10:00       6.261     0.000
  jd49                    2.86     3.186      0  10:00      22.871     0.000
  jd50                   10.75    11.248      0  10:00     152.339     0.000
  jd51                    9.35     6.335      0  10:00      71.852     0.000
  jd52                    0.02     3.936      0  07:12       0.148     0.000
  jd53                    3.02     3.991      0  10:00      34.907     0.000
  jd54                    0.01     0.442      0  07:24       0.004     0.000
  jd55                    3.17     7.623      0  10:00      70.792     0.000
  jd59                    9.28     3.821      0  10:00      46.344     0.000
  jd60                   10.33     3.877      0  10:00      43.292     0.000
  jd61                    0.85     0.219      0  09:10       0.411     0.000
  jd64                    2.94     0.921      0  10:00       6.500     0.000
  jd65                    5.42    15.378      0  10:00     149.041     0.000
  jd66                    9.91     4.949      0  10:00      60.502     0.000
  jd69                    1.96     0.900      0  10:00       4.709     0.000
  jd79                    8.06     4.605      0  10:00      50.654     0.000
  jd80                    6.21     4.744      0  10:00      49.978     0.000
  jd81                    1.23     0.250      0  10:00       0.699     0.000
  jd83                   11.01     3.973      0  10:00      45.712     0.000
  jd84                    2.98     2.475      0  10:00      20.517     0.000
  jd85                    9.95     1.839      0  10:00      19.780     0.000
  jd87                   10.18     1.929      0  10:00      21.616     0.000
  jd89                    1.83     0.178      0  10:00       0.826     0.000
  jd90                    0.01     0.062      0  09:23       0.000     0.000
  jd92                    0.01     0.071      0  07:14       0.000     0.000
  jd93                    3.01     1.594      0  10:00      13.988     0.000
  jd94                    0.01     0.978      0  07:12       0.020     0.000
  jd95                    0.02     0.401      0  07:09       0.007     0.000
  jd96                   10.19     2.091      0  10:00      23.046     0.000
  jd97                    2.93     1.010      0  10:00       7.992     0.000
  jd98                    1.72     0.143      0  10:00       0.614     0.000
  jd99                    9.91     0.824      0  10:00      10.554     0.000
  jd102                   2.90     0.520      0  10:00       3.807     0.000
  jd106                   9.58     3.565      0  10:00      40.151     0.000
  jd109                   1.71     0.284      0  10:00       1.223     0.000
  jd110                   9.91     1.966      0  10:00      21.694     0.000
  jd114                   9.94     4.764      0  10:00      73.227     0.000
  jd117                   3.00     1.463      0  10:00      12.291     0.000
  jd120                   1.85     0.215      0  10:00       1.027     0.000
  jd121                   1.98     0.316      0  10:00       1.565     0.000
  jd122                   9.91     8.774      0  10:00     112.271     0.000
  jd123                   9.72     5.773      0  10:00      76.924     0.000
  jd124                  11.50     5.884      0  10:00      78.664     0.000
  jd125                   3.41     3.976      0  10:00      36.056     0.000
  jd126                  11.07     7.677      0  10:00      89.008     0.000
  jd135                   0.01     0.109      0  07:17       0.000     0.000
  jd136                   2.86     0.732      0  10:00       4.816     0.000
  
  
  ***********************
  Outfall Loading Summary
  ***********************
  
  -----------------------------------------------------------
                         Flow       Avg       Max       Total
                         Freq      Flow      Flow      Volume
  Outfall Node           Pcnt       CMS       CMS    10^6 ltr
  -----------------------------------------------------------
  psk1                  98.08     0.630     1.398      16.941
  psk2                  98.02     1.481     3.238      40.226
  psk3                  98.12     2.732     5.968      73.496
  psk4                  22.93     0.173     0.263       0.991
  psk5                  98.06     0.585     1.348      15.908
  psk6                  98.00     0.512     1.187      13.834
  psk7                  98.11     2.031     4.125      58.807
  psk8                   0.00     0.000     0.000       0.000
  -----------------------------------------------------------
  System                76.41     8.145     0.000     220.203
  
  
  ********************
  Link Flow Summary
  ********************
  
  -----------------------------------------------------------------------------
                                 Maximum  Time of Max   Maximum    Max/    Max/
                                  |Flow|   Occurrence   |Veloc|    Full    Full
  Link                 Type          CMS  days hr:min     m/sec    Flow   Depth
  -----------------------------------------------------------------------------
  GQ1                  CONDUIT     0.409     0  10:00      1.97    1.07    0.76
  GQ2                  CONDUIT     2.217     0  10:06      2.90    1.05    1.00
  GQ3                  CONDUIT     1.398     0  10:00      7.91    0.05    0.16
  GQ4                  CONDUIT     0.510     0  09:17      1.80    1.00    1.00
  GQ5                  CONDUIT     1.208     0  07:36      2.40    1.00    1.00
  GQ6                  CONDUIT     0.728     0  10:00      1.94    0.33    0.70
  GQ7                  CONDUIT     1.675     0  08:01      3.58    1.00    1.00
  GQ8                  CONDUIT     1.045     0  07:40      2.08    1.00    1.00
  GQ9                  CONDUIT     2.837     0  08:06      5.74    1.00    1.00
  GQ10                 CONDUIT     1.135     0  04:31      4.10    1.04    1.00
  GQ11                 CONDUIT     0.556     0  10:00      2.48    0.60    0.78
  GQ12                 CONDUIT     0.727     0  10:00      2.88    0.79    0.84
  GQ13                 CONDUIT     0.361     0  10:00      1.06    0.17    0.64
  GQ14                 CONDUIT     0.218     0  10:00      1.48    0.31    0.34
  GQ15                 CONDUIT     0.249     0  07:12      4.44    1.00    0.87
  GQ16                 CONDUIT     2.030     0  10:00      4.10    0.98    0.66
  GQ17                 CONDUIT     1.041     0  10:00      2.78    0.33    0.70
  GQ18                 CONDUIT     1.118     0  07:14      2.50    5.04    1.00
  GQ19                 CONDUIT     1.435     0  10:00      3.30    0.17    0.54
  GQ20                 CONDUIT     0.315     0  10:00      0.64    0.17    0.64
  GQ21                 CONDUIT     1.188     0  10:00      1.99    0.37    0.71
  GQ22                 CONDUIT     1.204     0  10:00      2.05    0.37    0.71
  GQ23                 CONDUIT     2.040     0  08:14      2.60    1.00    1.00
  GQ24                 CONDUIT     2.020     0  07:36      4.02    1.00    1.00
  GQ25                 CONDUIT     1.105     0  07:29      4.11    1.24    1.00
  GQ26                 CONDUIT     0.829     0  07:15      3.14    0.97    1.00
  GQ27                 CONDUIT     0.997     0  07:35      3.52    1.00    1.00
  GQ28                 CONDUIT     0.491     0  10:00      1.00    0.53    0.95
  GQ29                 CONDUIT     2.142     0  09:22      4.26    1.00    1.00
  GQ30                 CONDUIT     0.824     0  09:14      2.91    1.00    1.00
  GQ31                 CONDUIT     0.747     0  08:11      2.64    1.00    1.00
  GQ32                 CONDUIT     0.738     0  07:14      2.95    1.18    1.00
  GQ33                 CONDUIT     1.434     0  07:36      5.07    1.00    1.00
  GQ34                 CONDUIT     0.638     0  07:53      2.26    1.00    1.00
  GQ35                 CONDUIT     0.710     0  07:09      2.52    1.32    1.00
  GQ36                 CONDUIT     0.971     0  07:09      3.44    1.20    1.00
  GQ37                 CONDUIT     0.699     0  07:27      2.47    1.00    1.00
  GQ38                 CONDUIT     0.228     0  10:00      0.99    0.32    0.76
  GQ39                 CONDUIT     0.782     0  08:16      2.76    1.00    1.00
  GQ40                 CONDUIT     0.804     0  10:02      2.84    1.00    1.00
  GQ41                 CONDUIT     2.160     0  08:24      2.75    1.00    1.00
  GQ42                 CONDUIT     1.359     0  09:23      2.70    1.00    1.00
  GQ43                 CONDUIT     2.305     0  07:10      4.70    1.03    1.00
  GQ44                 CONDUIT     0.946     0  07:27      1.88    1.00    1.00
  GQ45                 CONDUIT     2.102     0  10:00      4.28    0.85    0.95
  GQ46                 CONDUIT     1.171     0  07:06      2.34    1.10    1.00
  GQ47                 CONDUIT     0.461     0  10:00      2.08    0.44    0.73
  GQ48                 CONDUIT     0.458     0  10:00      2.07    0.44    0.73
  GQ49                 CONDUIT     2.099     0  10:00      8.32    0.79    0.84
  GQ50                 CONDUIT     0.576     0  10:00      2.28    0.75    0.84
  GQ51                 CONDUIT     0.993     0  07:14      3.70    1.51    1.00
  GQ52                 CONDUIT     0.860     0  10:08      1.71    1.15    1.00
  GQ53                 CONDUIT     2.225     0  08:18      2.83    1.00    1.00
  GQ54                 CONDUIT     1.167     0  09:27      4.13    1.00    1.00
  GQ55                 CONDUIT     0.878     0  10:00      3.72    0.60    0.78
  GQ56                 CONDUIT     1.987     0  07:09      4.13    1.09    1.00
  GQ57                 CONDUIT     1.531     0  07:44      3.05    1.00    1.00
  GQ58                 CONDUIT     3.188     0  08:03      6.34    1.00    1.00
  GQ59                 CONDUIT     1.203     0  07:31      2.39    1.00    1.00
  GQ60                 CONDUIT     3.920     0  07:12      2.41    0.95    1.00
  GQ61                 CONDUIT     0.596     0  10:00      0.55    0.07    0.59
  GQ62                 CONDUIT     1.561     0  10:00      1.09    0.16    0.63
  GQ63                 CONDUIT     3.624     0  10:00      1.80    0.11    0.61
  GQ64                 CONDUIT     0.389     0  10:00      2.24    0.30    0.69
  GQ65                 CONDUIT     0.264     0  10:00      1.28    0.48    0.69
  GQ66                 CONDUIT     0.452     0  10:00      1.37    0.13    0.62
  GQ67                 CONDUIT     1.442     0  09:49      1.28    1.00    1.00
  GQ68                 CONDUIT     2.501     0  10:00      3.33    0.79    0.91
  GQ69                 CONDUIT     2.931     0  07:14      5.97    1.05    1.00
  GQ70                 CONDUIT     1.187     0  10:00     10.32    0.17    0.28
  GQ71                 CONDUIT     1.348     0  10:00      7.31    0.33    0.39
  GQ72                 CONDUIT     4.125     0  10:00      6.07    0.99    0.81
  GQ73                 CONDUIT     3.238     0  10:00     15.56    0.21    0.31
  GQ74                 CONDUIT     0.921     0  10:00      1.96    0.17    0.64
  GQ75                 CONDUIT     0.719     0  10:00      1.32    0.21    0.66
  GQ76                 CONDUIT     5.968     0  07:57      7.60    1.29    1.00
  GQ77                 CONDUIT     0.263     0  07:28      0.54    0.08    0.59
  GQ78                 CONDUIT     0.916     0  07:28      3.24    1.00    1.00
  GQ79                 CONDUIT     0.256     0  07:13      1.08    0.55    1.00
  GQ80                 CONDUIT     0.608     0  07:35      2.15    1.00    1.00
  GQ81                 CONDUIT     0.543     0  07:03      1.92    3.44    1.00
  GQ82                 CONDUIT     1.450     0  09:17      5.13    1.00    1.00
  GQ83                 CONDUIT     1.568     0  10:02      5.75    1.00    1.00
  GQ84                 CONDUIT     1.351     0  07:07      4.82    1.07    1.00
  GQ85                 CONDUIT     0.579     0  07:34      2.05    1.00    1.00
  GQ86                 CONDUIT     0.702     0  10:00      3.38    0.30    0.69
  GQ87                 CONDUIT     0.157     0  10:00      0.79    0.23    0.67
  GQ88                 CONDUIT     1.127     0  09:19      3.98    1.00    1.00
  GQ89                 CONDUIT     0.759     0  09:17      2.68    1.00    1.00
  GQ90                 CONDUIT     0.955     0  10:00      3.39    0.96    1.00
  GQ91                 CONDUIT     0.803     0  10:00      2.84    0.98    1.00
  GQ92                 CONDUIT     1.300     0  07:12      2.79    1.87    1.00
  GQ93                 CONDUIT     0.999     0  10:00      1.99    0.86    1.00
  GQ94                 CONDUIT     1.369     0  07:12      2.72    1.62    1.00
  GQ95                 CONDUIT     0.526     0  10:00      1.59    0.13    0.62
  GQ96                 CONDUIT     1.141     0  07:12      2.27    1.95    1.00
  GQ97                 CONDUIT     0.812     0  09:04      2.87    1.47    1.00
  GQ98                 CONDUIT     0.370     0  10:00      1.31    0.52    1.00
  GQ99                 CONDUIT     1.351     0  10:00      1.24    0.07    0.59
  GQ100                CONDUIT     0.712     0  10:00      3.31    1.22    0.73
  GQ101                CONDUIT     0.848     0  10:00      3.51    0.63    0.80
  GQ102                CONDUIT     3.193     0  10:00      6.63    0.97    0.91
  GQ103                CONDUIT     0.650     0  07:32      2.30    1.00    1.00
  GQ104                CONDUIT     1.388     0  10:11      5.02    1.01    1.00
  GQ105                CONDUIT     0.315     0  08:55      0.63    1.00    1.00
  GQ106                CONDUIT     0.816     0  10:00      3.18    0.82    0.85
  GQ107                CONDUIT     1.114     0  07:26      3.94    1.00    1.00
  GQ108                CONDUIT     0.829     0  08:30      1.65    1.00    1.00
  GQ109                CONDUIT     0.686     0  10:00      2.43    0.93    1.00
  GQ110                CONDUIT     1.146     0  10:00      2.17    0.17    0.64
  GQ111                CONDUIT     1.036     0  10:00      3.66    0.94    1.00
  GQ112                CONDUIT     2.867     0  10:00      3.76    0.51    0.75
  GQ113                CONDUIT     1.472     0  07:25      5.23    1.11    1.00
  GQ114                CONDUIT     1.041     0  10:00      1.38    0.43    0.91
  GQ115                CONDUIT     0.453     0  10:00      1.35    0.06    0.34
  GQ116                CONDUIT     0.645     0  10:00      1.31    0.09    0.60
  GQ117                CONDUIT     1.564     0  10:00      4.91    0.98    0.65
  GQ118                CONDUIT     0.868     0  10:00      3.27    0.30    0.69
  GQ119                CONDUIT     2.302     0  09:31      4.58    1.00    1.00
  GQ120                CONDUIT     0.000     0  00:00      0.00    0.00    0.50
  GQ121                CONDUIT     1.414     0  07:38      2.81    1.00    1.00
  GQ122                CONDUIT     1.027     0  10:00      2.99    0.19    0.65
  GQ123                CONDUIT     0.884     0  10:00      4.01    0.43    0.73
  GQ124                CONDUIT     0.430     0  10:00      1.42    0.19    0.65
  GQ125                CONDUIT     0.889     0  10:01      3.14    1.00    1.00
  GQ126                CONDUIT     1.049     0  09:19      3.71    1.00    1.00
  GQ127                CONDUIT     0.889     0  07:11      1.78    1.14    1.00
  GQ128                CONDUIT     4.228     0  10:00      3.74    0.92    1.00
  GQ129                CONDUIT     1.313     0  07:48      2.61    1.00    1.00
  GQ130                CONDUIT     1.073     0  08:14      3.79    1.00    1.00
  GQ131                CONDUIT     0.862     0  08:28      3.05    1.00    1.00
  
  
  ***************************
  Flow Classification Summary
  ***************************
  
  -------------------------------------------------------------------------------------
                      Adjusted    ---------- Fraction of Time in Flow Class ---------- 
                       /Actual         Up    Down  Sub   Sup   Up    Down  Norm  Inlet 
  Conduit               Length    Dry  Dry   Dry   Crit  Crit  Crit  Crit  Ltd   Ctrl  
  -------------------------------------------------------------------------------------
  GQ1                     1.00   0.02  0.00  0.00  0.45  0.53  0.00  0.00  0.00  0.00
  GQ2                     1.00   0.02  0.00  0.00  0.46  0.53  0.00  0.00  0.72  0.00
  GQ3                     1.00   0.02  0.00  0.00  0.00  0.98  0.00  0.00  0.21  0.00
  GQ4                     1.00   0.02  0.00  0.00  0.98  0.00  0.00  0.00  0.46  0.00
  GQ5                     1.00   0.02  0.00  0.00  0.98  0.00  0.00  0.00  0.67  0.00
  GQ6                     1.00   0.02  0.00  0.00  0.97  0.01  0.00  0.00  0.93  0.00
  GQ7                     1.00   0.02  0.00  0.00  0.52  0.46  0.00  0.00  0.10  0.00
  GQ8                     1.00   0.02  0.00  0.00  0.98  0.00  0.00  0.00  0.70  0.00
  GQ9                     1.00   0.02  0.00  0.00  0.90  0.08  0.00  0.00  0.71  0.00
  GQ10                    1.00   0.02  0.00  0.00  0.79  0.19  0.00  0.00  0.51  0.00
  GQ11                    1.00   0.02  0.00  0.00  0.42  0.56  0.00  0.00  0.91  0.00
  GQ12                    1.00   0.02  0.00  0.00  0.58  0.40  0.00  0.00  0.93  0.00
  GQ13                    1.00   0.02  0.00  0.00  0.98  0.00  0.00  0.00  0.93  0.00
  GQ14                    1.00   0.02  0.00  0.00  0.56  0.42  0.00  0.00  0.00  0.00
  GQ15                    1.00   0.02  0.00  0.00  0.00  0.98  0.00  0.00  0.01  0.00
  GQ16                    1.00   0.02  0.00  0.00  0.00  0.98  0.00  0.00  0.00  0.00
  GQ17                    1.00   0.02  0.00  0.00  0.49  0.50  0.00  0.00  0.93  0.00
  GQ18                    1.00   0.02  0.00  0.00  0.93  0.05  0.00  0.00  0.10  0.00
  GQ19                    1.00   0.02  0.00  0.00  0.41  0.57  0.00  0.00  0.93  0.00
  GQ20                    1.00   0.02  0.00  0.00  0.98  0.00  0.00  0.00  0.93  0.00
  GQ21                    1.00   0.02  0.00  0.00  0.67  0.32  0.00  0.00  0.93  0.00
  GQ22                    1.00   0.02  0.00  0.00  0.45  0.54  0.00  0.00  0.93  0.00
  GQ23                    1.00   0.02  0.00  0.00  0.45  0.53  0.00  0.00  0.13  0.00
  GQ24                    1.00   0.02  0.00  0.00  0.97  0.01  0.00  0.00  0.70  0.00
  GQ25                    1.00   0.02  0.00  0.00  0.23  0.75  0.00  0.00  0.01  0.00
  GQ26                    1.00   0.02  0.00  0.00  0.32  0.66  0.00  0.00  0.65  0.00
  GQ27                    1.00   0.02  0.00  0.00  0.89  0.09  0.00  0.00  0.69  0.00
  GQ28                    1.00   0.02  0.00  0.00  0.98  0.00  0.00  0.00  0.70  0.00
  GQ29                    1.00   0.02  0.00  0.00  0.98  0.00  0.00  0.00  0.21  0.00
  GQ30                    1.00   0.02  0.00  0.00  0.97  0.01  0.00  0.00  0.19  0.00
  GQ31                    1.00   0.02  0.00  0.00  0.98  0.00  0.00  0.00  0.70  0.00
  GQ32                    1.00   0.02  0.00  0.00  0.43  0.55  0.00  0.00  0.00  0.00
  GQ33                    1.00   0.02  0.00  0.00  0.78  0.21  0.00  0.00  0.67  0.00
  GQ34                    1.00   0.02  0.00  0.00  0.97  0.01  0.00  0.00  0.71  0.00
  GQ35                    1.00   0.02  0.00  0.00  0.49  0.50  0.00  0.00  0.42  0.00
  GQ36                    1.00   0.02  0.00  0.00  0.46  0.52  0.00  0.00  0.64  0.00
  GQ37                    1.00   0.02  0.00  0.00  0.98  0.00  0.00  0.00  0.69  0.00
  GQ38                    1.00   0.02  0.00  0.00  0.98  0.00  0.00  0.00  0.69  0.00
  GQ39                    1.00   0.02  0.00  0.00  0.97  0.02  0.00  0.00  0.68  0.00
  GQ40                    1.00   0.02  0.00  0.00  0.45  0.54  0.00  0.00  0.71  0.00
  GQ41                    1.00   0.02  0.00  0.00  0.98  0.00  0.00  0.00  0.67  0.00
  GQ42                    1.00   0.02  0.00  0.00  0.98  0.00  0.00  0.00  0.59  0.00
  GQ43                    1.00   0.02  0.00  0.00  0.48  0.51  0.00  0.00  0.68  0.00
  GQ44                    1.00   0.02  0.00  0.00  0.98  0.00  0.00  0.00  0.45  0.00
  GQ45                    1.00   0.02  0.00  0.00  0.22  0.76  0.00  0.00  0.71  0.00
  GQ46                    1.00   0.02  0.00  0.00  0.72  0.26  0.00  0.00  0.47  0.00
  GQ47                    1.00   0.02  0.00  0.00  0.86  0.12  0.00  0.00  0.93  0.00
  GQ48                    1.00   0.02  0.00  0.00  0.87  0.11  0.00  0.00  0.93  0.00
  GQ49                    1.00   0.02  0.00  0.00  0.50  0.48  0.00  0.00  0.93  0.00
  GQ50                    1.00   0.02  0.00  0.00  0.98  0.00  0.00  0.00  0.82  0.00
  GQ51                    1.00   0.02  0.00  0.00  0.44  0.55  0.00  0.00  0.52  0.00
  GQ52                    1.00   0.02  0.00  0.00  0.98  0.00  0.00  0.00  0.53  0.00
  GQ53                    1.00   0.02  0.00  0.00  0.98  0.00  0.00  0.00  0.61  0.00
  GQ54                    1.00   0.02  0.00  0.00  0.77  0.22  0.00  0.00  0.73  0.00
  GQ55                    1.00   0.02  0.00  0.00  0.56  0.42  0.00  0.00  0.93  0.00
  GQ56                    1.00   0.02  0.00  0.00  0.48  0.50  0.00  0.00  0.51  0.00
  GQ57                    1.00   0.02  0.00  0.00  0.98  0.00  0.00  0.00  0.72  0.00
  GQ58                    1.00   0.02  0.00  0.00  0.89  0.09  0.00  0.00  0.73  0.00
  GQ59                    1.00   0.02  0.00  0.00  0.98  0.00  0.00  0.00  0.60  0.00
  GQ60                    1.00   0.02  0.00  0.00  0.98  0.00  0.00  0.00  0.25  0.00
  GQ61                    1.00   0.02  0.00  0.00  0.98  0.00  0.00  0.00  0.93  0.00
  GQ62                    1.00   0.02  0.00  0.00  0.98  0.00  0.00  0.00  0.93  0.00
  GQ63                    1.00   0.02  0.00  0.00  0.97  0.01  0.00  0.00  0.93  0.00
  GQ64                    1.00   0.02  0.00  0.00  0.42  0.56  0.00  0.00  0.93  0.00
  GQ65                    1.00   0.02  0.00  0.00  0.98  0.00  0.00  0.00  0.73  0.00
  GQ66                    1.00   0.02  0.00  0.00  0.98  0.00  0.00  0.00  0.93  0.00
  GQ67                    1.00   0.02  0.00  0.00  0.98  0.00  0.00  0.00  0.17  0.00
  GQ68                    1.00   0.02  0.00  0.00  0.98  0.00  0.00  0.00  0.72  0.00
  GQ69                    1.00   0.02  0.00  0.00  0.92  0.06  0.00  0.00  0.72  0.00
  GQ70                    1.00   0.02  0.00  0.00  0.00  0.98  0.00  0.00  0.06  0.00
  GQ71                    1.00   0.02  0.00  0.00  0.00  0.98  0.00  0.00  0.17  0.00
  GQ72                    1.00   0.02  0.00  0.00  0.00  0.98  0.00  0.00  0.37  0.00
  GQ73                    1.00   0.02  0.00  0.00  0.00  0.98  0.00  0.00  0.06  0.00
  GQ74                    1.00   0.02  0.00  0.00  0.92  0.06  0.00  0.00  0.93  0.00
  GQ75                    1.00   0.02  0.00  0.00  0.98  0.00  0.00  0.00  0.93  0.00
  GQ76                    1.00   0.02  0.00  0.00  0.40  0.59  0.00  0.00  0.20  0.00
  GQ77                    1.00   0.02  0.75  0.00  0.23  0.00  0.00  0.00  0.36  0.00
  GQ78                    1.00   0.02  0.00  0.00  0.96  0.02  0.00  0.00  0.67  0.00
  GQ79                    1.00   0.02  0.00  0.00  0.98  0.00  0.00  0.00  0.18  0.00
  GQ80                    1.00   0.02  0.00  0.00  0.98  0.00  0.00  0.00  0.55  0.00
  GQ81                    1.00   0.02  0.00  0.00  0.98  0.00  0.00  0.00  0.00  0.00
  GQ82                    1.00   0.02  0.00  0.00  0.72  0.26  0.00  0.00  0.73  0.00
  GQ83                    1.00   0.02  0.00  0.00  0.20  0.78  0.00  0.00  0.80  0.00
  GQ84                    1.00   0.02  0.00  0.00  0.47  0.51  0.00  0.00  0.70  0.00
  GQ85                    1.00   0.02  0.00  0.00  0.98  0.00  0.00  0.00  0.57  0.00
  GQ86                    1.00   0.02  0.00  0.00  0.57  0.41  0.00  0.00  0.93  0.00
  GQ87                    1.00   0.02  0.00  0.00  0.98  0.00  0.00  0.00  0.86  0.00
  GQ88                    1.00   0.02  0.00  0.00  0.77  0.21  0.00  0.00  0.72  0.00
  GQ89                    1.00   0.02  0.00  0.00  0.98  0.00  0.00  0.00  0.71  0.00
  GQ90                    1.00   0.02  0.00  0.00  0.66  0.33  0.00  0.00  0.72  0.00
  GQ91                    1.00   0.02  0.00  0.00  0.98  0.00  0.00  0.00  0.71  0.00
  GQ92                    1.00   0.02  0.00  0.00  0.93  0.05  0.00  0.00  0.01  0.00
  GQ93                    1.00   0.02  0.00  0.00  0.98  0.00  0.00  0.00  0.69  0.00
  GQ94                    1.00   0.02  0.00  0.00  0.60  0.39  0.00  0.00  0.01  0.00
  GQ95                    1.00   0.02  0.00  0.00  0.98  0.00  0.00  0.00  0.93  0.00
  GQ96                    1.00   0.02  0.00  0.00  0.98  0.00  0.00  0.00  0.46  0.00
  GQ97                    1.00   0.02  0.00  0.00  0.42  0.56  0.00  0.00  0.29  0.00
  GQ98                    1.00   0.02  0.00  0.00  0.98  0.00  0.00  0.00  0.68  0.00
  GQ99                    1.00   0.02  0.00  0.00  0.98  0.00  0.00  0.00  0.93  0.00
  GQ100                   1.00   0.02  0.00  0.00  0.00  0.98  0.00  0.00  0.00  0.00
  GQ101                   1.00   0.02  0.00  0.00  0.55  0.43  0.00  0.00  0.81  0.00
  GQ102                   1.00   0.02  0.00  0.00  0.52  0.46  0.00  0.00  0.82  0.00
  GQ103                   1.00   0.02  0.00  0.00  0.98  0.00  0.00  0.00  0.70  0.00
  GQ104                   1.00   0.02  0.00  0.00  0.88  0.10  0.00  0.00  0.71  0.00
  GQ105                   1.00   0.02  0.00  0.00  0.98  0.00  0.00  0.00  0.15  0.00
  GQ106                   1.00   0.02  0.00  0.00  0.56  0.42  0.00  0.00  0.81  0.00
  GQ107                   1.00   0.02  0.00  0.00  0.86  0.12  0.00  0.00  0.69  0.00
  GQ108                   1.00   0.02  0.00  0.00  0.98  0.00  0.00  0.00  0.22  0.00
  GQ109                   1.00   0.02  0.00  0.00  0.94  0.05  0.00  0.00  0.70  0.00
  GQ110                   1.00   0.02  0.00  0.00  0.98  0.00  0.00  0.00  0.93  0.00
  GQ111                   1.00   0.02  0.00  0.00  0.95  0.03  0.00  0.00  0.71  0.00
  GQ112                   1.00   0.02  0.00  0.00  0.14  0.84  0.00  0.00  0.92  0.00
  GQ113                   1.00   0.02  0.00  0.00  0.24  0.74  0.00  0.00  0.75  0.00
  GQ114                   1.00   0.02  0.00  0.00  0.98  0.00  0.00  0.00  0.20  0.00
  GQ115                   1.00   0.02  0.00  0.00  0.96  0.02  0.00  0.00  0.93  0.00
  GQ116                   1.00   0.02  0.00  0.00  0.98  0.00  0.00  0.00  0.93  0.00
  GQ117                   1.00   0.02  0.00  0.00  0.00  0.98  0.00  0.00  0.00  0.00
  GQ118                   1.00   0.02  0.00  0.00  0.42  0.56  0.00  0.00  0.93  0.00
  GQ119                   1.00   0.02  0.00  0.00  0.87  0.11  0.00  0.00  0.67  0.00
  GQ120                   1.00   0.02  0.08  0.00  0.90  0.00  0.00  0.00  0.00  0.00
  GQ121                   1.00   0.02  0.00  0.00  0.98  0.00  0.00  0.00  0.19  0.00
  GQ122                   1.00   0.02  0.00  0.00  0.50  0.48  0.00  0.00  0.93  0.00
  GQ123                   1.00   0.02  0.00  0.00  0.49  0.49  0.00  0.00  0.93  0.00
  GQ124                   1.00   0.02  0.00  0.00  0.97  0.01  0.00  0.00  0.93  0.00
  GQ125                   1.00   0.02  0.00  0.00  0.98  0.01  0.00  0.00  0.71  0.00
  GQ126                   1.00   0.02  0.00  0.00  0.94  0.04  0.00  0.00  0.72  0.00
  GQ127                   1.00   0.02  0.00  0.00  0.98  0.00  0.00  0.00  0.49  0.00
  GQ128                   1.00   0.02  0.00  0.00  0.49  0.50  0.00  0.00  0.62  0.00
  GQ129                   1.00   0.02  0.00  0.00  0.98  0.00  0.00  0.00  0.50  0.00
  GQ130                   1.00   0.02  0.00  0.00  0.86  0.12  0.00  0.00  0.50  0.00
  GQ131                   1.00   0.02  0.00  0.00  0.96  0.02  0.00  0.00  0.68  0.00
  
  
  *************************
  Conduit Surcharge Summary
  *************************
  
  ----------------------------------------------------------------------------
                                                           Hours        Hours 
                         --------- Hours Full --------   Above Full   Capacity
  Conduit                Both Ends  Upstream  Dnstream   Normal Flow   Limited
  ----------------------------------------------------------------------------
  GQ1                         0.01      2.97      0.01      1.66         0.01
  GQ2                         2.59      2.59      2.76      0.04         0.01
  GQ4                         5.24      5.24     10.21      0.01         0.01
  GQ5                         3.21      3.21      9.94      0.01         0.01
  GQ6                         0.01      0.01      3.21      0.01         0.01
  GQ7                         3.78      3.78      4.50      0.01         0.01
  GQ8                         2.89      2.89      3.78      0.01         0.01
  GQ9                         2.89      2.89     10.75      0.01         0.01
  GQ10                        5.64      5.64     10.95      0.14         0.01
  GQ11                        0.01      0.01      2.76      0.01         0.01
  GQ12                        0.01      0.01      9.52      0.01         0.01
  GQ13                        0.01      0.01      4.56      0.01         0.01
  GQ15                        0.01      2.84      0.01      0.02         0.01
  GQ16                        0.01      2.94      0.01      0.01         0.01
  GQ17                        0.01      0.01      0.68      0.01         0.01
  GQ18                        0.68      0.68      8.05      8.78         0.01
  GQ20                        0.01      0.01      3.06      0.01         0.01
  GQ21                        0.01      0.01      3.06      0.01         0.01
  GQ22                        0.01      0.01      2.89      0.01         0.01
  GQ23                        2.89      2.89      3.00      0.01         0.01
  GQ24                        3.06      3.06     10.53      0.01         0.01
  GQ25                        1.35      3.00      1.35      3.00         1.35
  GQ26                        1.35      1.35      3.11      0.01         0.01
  GQ27                        3.11      3.11      9.68      0.01         0.01
  GQ28                        0.01      0.01     10.05      0.01         0.01
  GQ29                        9.59      9.59     10.05      0.01         0.01
  GQ30                        9.68      9.68     10.29      0.01         0.01
  GQ31                        3.00      3.00     11.05      0.01         0.01
  GQ32                        2.93      3.34      2.93      0.44         0.08
  GQ33                        3.34      3.34     11.05      0.01         0.01
  GQ34                        2.76      2.76      3.34      0.01         0.01
  GQ35                        3.26      3.29      3.34      0.10         0.01
  GQ36                        3.26      3.29      3.27      0.54         0.42
  GQ37                        2.93      2.93     10.65      0.01         0.01
  GQ38                        0.01      0.01     10.65      0.01         0.01
  GQ39                        3.12      3.12      9.52      0.01         0.01
  GQ40                        2.93      2.93      3.12      0.01         0.01
  GQ41                        2.94      2.94      9.96      0.01         0.01
  GQ42                        3.78      3.78     10.17      0.01         0.01
  GQ43                        3.40      3.40      3.78      0.04         0.01
  GQ44                        5.14      5.14      8.05      0.01         0.01
  GQ45                        0.01      0.01      4.19      0.01         0.01
  GQ46                        4.19      4.19      5.14      0.09         0.01
  GQ47                        0.01      0.01     10.06      0.01         0.01
  GQ48                        0.01      0.01     10.33      0.01         0.01
  GQ49                        0.01      0.01     10.33      0.01         0.01
  GQ50                        0.01      0.01      3.11      0.01         0.01
  GQ51                        2.97      3.11      2.97      3.18         2.97
  GQ52                        2.91      2.91      9.59      2.18         2.09
  GQ53                        3.58      3.58     10.32      0.01         0.01
  GQ54                        1.43      1.43     10.35      0.01         0.01
  GQ55                        0.01      0.01     10.35      0.01         0.01
  GQ56                        3.38      3.41      3.78      0.19         0.04
  GQ57                        2.59      2.59      3.41      0.01         0.01
  GQ58                        2.59      2.59      9.77      0.01         0.01
  GQ59                        3.78      3.78      9.77      0.01         0.01
  GQ60                        3.17      3.17      3.88      0.01         0.01
  GQ61                        0.01      0.01      9.28      0.01         0.01
  GQ62                        0.01      0.01      9.36      0.01         0.01
  GQ63                        0.01      0.01      9.42      0.01         0.01
  GQ64                        0.01      0.01      1.43      0.01         0.01
  GQ65                        0.01      0.01      2.91      0.01         0.01
  GQ66                        0.01      0.01      9.44      0.01         0.01
  GQ67                        9.30      9.30      9.36      0.01         0.01
  GQ68                        0.01      0.01      9.59      0.01         0.01
  GQ69                        2.81      2.81      9.92      0.06         0.01
  GQ74                        0.01      0.01      2.76      0.01         0.01
  GQ75                        0.01      0.01      9.58      0.01         0.01
  GQ76                        2.76      2.76      2.87      2.87         2.76
  GQ77                        0.01      0.01      6.53      0.01         0.01
  GQ78                        3.39      3.39     10.53      0.01         0.01
  GQ79                        1.61      1.61     10.53      0.01         0.01
  GQ80                        3.39      3.39      8.89      0.01         0.01
  GQ81                        8.86      8.89      9.52      8.13         2.94
  GQ82                        1.39      1.39      9.52      0.01         0.01
  GQ83                        1.39      1.39      3.03      0.01         0.01
  GQ84                        3.03      3.03      3.60      0.05         0.01
  GQ85                        3.03      3.03     11.02      0.01         0.01
  GQ86                        0.01      0.01      9.96      0.01         0.01
  GQ87                        0.01      0.01      9.96      0.01         0.01
  GQ88                        1.43      1.43     10.19      0.01         0.01
  GQ89                        2.79      2.79      9.67      0.01         0.01
  GQ90                        0.63      0.63      9.54      0.01         0.01
  GQ91                        2.82      2.82      9.77      0.01         0.01
  GQ92                        3.02      3.07      3.12      2.99         2.91
  GQ93                        3.12      3.12      3.34      0.01         0.01
  GQ94                        3.34      3.34      3.40      3.31         3.26
  GQ95                        0.01      0.01     10.20      0.01         0.01
  GQ96                        3.05      3.08      3.07      3.05         2.96
  GQ97                        2.83      2.87      2.83      2.92         2.83
  GQ98                        2.83      2.83      9.91      0.01         0.01
  GQ99                        0.01      0.01      9.39      0.01         0.01
  GQ100                       0.01      2.97      0.01      2.94         0.01
  GQ101                       0.01      0.01      9.77      0.01         0.01
  GQ102                       0.01      0.01     10.06      0.01         0.01
  GQ103                       3.03      3.03     10.37      0.01         0.01
  GQ104                       2.93      2.93     10.37      0.03         0.01
  GQ105                       9.91      9.91     10.06      9.34         0.01
  GQ106                       0.01      0.01     10.04      0.01         0.01
  GQ107                       3.12      3.12     10.04      0.01         0.01
  GQ108                       8.30      8.30      9.91      0.01         0.01
  GQ109                       2.76      2.76      3.12      0.01         0.01
  GQ110                       0.01      0.01      9.58      0.01         0.01
  GQ111                       2.76      2.76      9.77      0.01         0.01
  GQ112                       0.01      0.01      2.67      0.01         0.01
  GQ113                       0.84      2.04      0.84      2.11         0.84
  GQ114                       0.01      0.01     10.22      0.01         0.01
  GQ116                       0.01      0.01      9.91      0.01         0.01
  GQ117                       0.01      2.88      0.01      0.01         0.01
  GQ118                       0.01      0.01      2.88      0.01         0.01
  GQ119                       3.46      3.46     10.51      0.01         0.01
  GQ120                       0.01      0.01      9.94      0.01         0.01
  GQ121                       9.94      9.94     10.51      0.01         0.01
  GQ122                       0.01      0.01      9.94      0.01         0.01
  GQ123                       0.01      0.01     10.02      0.01         0.01
  GQ124                       0.01      0.01      2.89      0.01         0.01
  GQ125                       2.86      2.86      9.77      0.01         0.01
  GQ126                       2.77      2.77      9.77      0.01         0.01
  GQ127                       3.39      3.40      3.46      0.13         0.12
  GQ128                       2.67      2.67      3.25      0.01         0.01
  GQ129                       4.50      4.50     10.53      0.01         0.01
  GQ130                       4.87      4.87     11.51      0.01         0.01
  GQ131                       3.11      3.11     11.08      0.01         0.01
  

  Analysis begun on:  Sat Mar 25 16:21:45 2023
  Analysis ended on:  Sat Mar 25 16:21:49 2023
  Total elapsed time: 00:00:04