
  OWA STORM WATER MANAGEMENT MODEL - VERSION v5.1.14 (OWA 2022-07-31)
  --------------------------------------------------------------

  INP file created by DSDAConvertToSwmmTools 
  version 0.0.1 EcoVista 
  Title/Notes: 
  
  
  *********************************************************
  NOTE: The summary statistics displayed in this report are
  based on results found at every computational time step,  
  not just on results from each reporting time step.
  *********************************************************
  
  ****************
  Analysis Options
  ****************
  Flow Units ............... CMS
  Process Models:
    Rainfall/Runoff ........ YES
    RDII ................... NO
    Snowmelt ............... NO
    Groundwater ............ NO
    Flow Routing ........... YES
    Ponding Allowed ........ NO
    Water Quality .......... NO
  Infiltration Method ...... GREEN_AMPT
  Flow Routing Method ...... DYNWAVE
  Surcharge Method ......... EXTRAN
  Starting Date ............ 07/15/2020 00:00:00
  Ending Date .............. 07/15/2020 10:00:00
  Antecedent Dry Days ...... 0.0
  Report Time Step ......... 00:30:00
  Wet Time Step ............ 00:05:00
  Dry Time Step ............ 01:00:00
  Routing Time Step ........ 30.00 sec
  Variable Time Step ....... YES
  Maximum Trials ........... 8
  Number of Threads ........ 1
  Head Tolerance ........... 0.001500 m
  
  
  **************************        Volume         Depth
  Runoff Quantity Continuity     hectare-m            mm
  **************************     ---------       -------
  Total Precipitation ......       285.351        71.400
  Evaporation Loss .........         3.373         0.844
  Infiltration Loss ........        76.258        19.081
  Surface Runoff ...........       198.905        49.770
  Final Storage ............         7.305         1.828
  Continuity Error (%) .....        -0.172
  
  
  **************************        Volume        Volume
  Flow Routing Continuity        hectare-m      10^6 ltr
  **************************     ---------     ---------
  Dry Weather Inflow .......         0.000         0.000
  Wet Weather Inflow .......       198.799      1988.009
  Groundwater Inflow .......         0.000         0.000
  RDII Inflow ..............         0.000         0.000
  External Inflow ..........         0.000         0.000
  External Outflow .........        13.863       138.629
  Flooding Loss ............       183.533      1835.350
  Evaporation Loss .........         0.000         0.000
  Exfiltration Loss ........         0.000         0.000
  Initial Stored Volume ....         0.000         0.000
  Final Stored Volume ......         1.279        12.794
  Continuity Error (%) .....         0.062
  
  
  *************************
  Highest Continuity Errors
  *************************
  Node jd51 (2.88%)
  Node jd59 (2.53%)
  Node jd31 (2.51%)
  Node jd64 (2.16%)
  Node jd41 (2.13%)
  
  
  ***************************
  Time-Step Critical Elements
  ***************************
  Link GQ73 (96.20%)
  
  
  ********************************
  Highest Flow Instability Indexes
  ********************************
  Link GQ67 (9)
  Link GQ93 (5)
  Link GQ96 (5)
  Link GQ92 (5)
  Link GQ121 (4)
  
  
  *************************
  Routing Time Step Summary
  *************************
  Minimum Time Step           :     2.76 sec
  Average Time Step           :     8.25 sec
  Maximum Time Step           :    30.00 sec
  Percent in Steady State     :    -0.00
  Average Iterations per Step :     3.79
  Percent Not Converging      :    17.16
  
  
  ***************************
  Subcatchment Runoff Summary
  ***************************
  
  ------------------------------------------------------------------------------------------------------------------------------
                            Total      Total      Total      Total     Imperv       Perv      Total       Total     Peak  Runoff
                           Precip      Runon       Evap      Infil     Runoff     Runoff     Runoff      Runoff   Runoff   Coeff
  Subcatchment                 mm         mm         mm         mm         mm         mm         mm    10^6 ltr      CMS
  ------------------------------------------------------------------------------------------------------------------------------
  1                         71.40       0.00       0.51      40.00      29.99       0.00      29.99       11.87     1.61   0.420
  2                         71.40       0.00       0.91      15.20      53.32       0.00      53.32       48.22     6.58   0.747
  3                         71.40       0.00       0.94      13.03      55.56       0.00      55.56       22.23     3.03   0.778
  4                         71.40       0.00       0.97      11.19      57.45       0.00      57.45        4.82     0.66   0.805
  5                         71.40       0.00       0.86      18.19      50.78       0.00      50.78        6.28     0.85   0.711
  6                         71.40       0.00       0.82      20.46      48.66       0.00      48.66        4.52     0.61   0.681
  7                         71.40       0.00       0.86      18.27      50.49       0.00      50.49       22.01     3.00   0.707
  8                         71.40       0.00       1.09       4.00      64.11       0.00      64.11        8.93     1.22   0.898
  9                         71.40       0.00       1.12       1.99      66.06       0.00      66.06        7.73     1.05   0.925
  10                        71.40       0.00       0.96      11.61      56.92       0.00      56.92       12.82     1.75   0.797
  11                        71.40       0.00       1.04       6.82      61.39       0.00      61.39       30.44     4.16   0.860
  12                        71.40       0.00       0.82      20.53      48.44       0.00      48.44       23.64     3.22   0.678
  13                        71.40       0.00       1.03       7.70      60.58       0.00      60.58       27.40     3.74   0.848
  14                        71.40       0.00       1.03       7.79      60.60       0.00      60.60       11.43     1.56   0.849
  15                        71.40       0.00       0.95      12.55      56.01       0.00      56.01       18.93     2.58   0.784
  16                        71.40       0.00       0.98      10.37      58.05       0.00      58.05       17.15     2.34   0.813
  17                        71.40       0.00       0.92      14.25      54.39       0.00      54.39       22.76     3.10   0.762
  18                        71.40       0.00       1.06       5.62      62.53       0.00      62.53       25.82     3.53   0.876
  19                        71.40       0.00       1.06       5.87      62.27       0.00      62.27       14.00     1.91   0.872
  20                        71.40       0.00       1.05       6.27      61.78       0.00      61.78       33.15     4.53   0.865
  21                        71.40       0.00       1.12       2.10      65.86       0.00      65.86       20.66     2.82   0.922
  22                        71.40       0.00       1.10       3.37      64.62       0.00      64.62        7.95     1.09   0.905
  23                        71.40       0.00       1.01       8.73      59.53       0.00      59.53       34.08     4.65   0.834
  24                        71.40       0.00       0.98      10.90      57.46       0.00      57.46       10.19     1.39   0.805
  25                        71.40       0.00       1.04       6.70      61.59       0.00      61.59       12.47     1.70   0.863
  26                        71.40       0.00       0.89      16.29      52.31       0.00      52.31       18.36     2.51   0.733
  27                        71.40       0.00       1.07       5.35      62.66       0.00      62.66       26.48     3.62   0.878
  28                        71.40       0.00       1.09       3.94      64.05       0.00      64.05       30.28     4.14   0.897
  29                        71.40       0.00       0.97      11.08      57.47       0.00      57.47       13.42     1.83   0.805
  30                        71.40       0.00       1.11       2.41      65.80       0.00      65.80        4.72     0.64   0.922
  31                        71.40       0.00       1.13       1.50      66.46       0.00      66.46       14.65     2.00   0.931
  32                        71.40       0.00       1.10       3.18      64.84       0.00      64.84       28.02     3.83   0.908
  33                        71.40       0.00       1.11       2.32      65.62       0.00      65.62       23.12     3.16   0.919
  34                        71.40       0.00       1.04       7.23      61.02       0.00      61.02       17.89     2.44   0.855
  35                        71.40       0.00       1.06       5.39      62.76       0.00      62.76       26.03     3.55   0.879
  36                        71.40       0.00       0.88      17.01      51.81       0.00      51.81       20.39     2.78   0.726
  37                        71.40       0.00       1.09       3.85      64.20       0.00      64.20       14.25     1.95   0.899
  38                        71.40       0.00       1.02       8.08      60.23       0.00      60.23       22.97     3.14   0.844
  39                        71.40       0.00       0.92      14.20      54.47       0.00      54.47       23.00     3.14   0.763
  40                        71.40       0.00       1.03       7.72      60.57       0.00      60.57       13.85     1.89   0.848
  41                        71.40       0.00       1.05       6.28      62.00       0.00      62.00       12.23     1.67   0.868
  42                        71.40       0.00       1.05       6.35      61.74       0.00      61.74       15.25     2.08   0.865
  43                        71.40       0.00       0.88      16.69      52.00       0.00      52.00       41.10     5.61   0.728
  44                        71.40       0.00       0.94      13.02      55.46       0.00      55.46       26.81     3.66   0.777
  45                        71.40       0.00       0.88      16.56      52.16       0.00      52.16       37.74     5.15   0.731
  46                        71.40       0.00       0.85      18.45      50.49       0.00      50.49       25.24     3.44   0.707
  47                        71.40       0.00       0.90      15.79      52.89       0.00      52.89       61.66     8.41   0.741
  48                        71.40       0.00       1.07       4.94      63.02       0.00      63.02       36.57     5.00   0.883
  49                        71.40       0.00       0.98      10.58      57.70       0.00      57.70       39.06     5.34   0.808
  50                        71.40       0.00       1.09       4.02      63.79       0.00      63.79       25.07     3.42   0.893
  51                        71.40       0.00       1.04       6.94      61.07       0.00      61.07       11.43     1.56   0.855
  52                        71.40       0.00       0.51      40.05      29.99       0.00      29.99       30.77     4.18   0.420
  53                        71.40       0.00       0.73      26.00      43.33       0.00      43.33       46.15     6.28   0.607
  54                        71.40       0.00       0.90      15.38      53.33       0.00      53.33       13.00     1.77   0.747
  55                        71.40       0.00       0.52      39.32      30.68       0.00      30.68       24.21     3.29   0.430
  56                        71.40       0.00       0.20      59.30      11.65       0.00      11.65        9.50     1.28   0.163
  57                        71.40       0.00       1.02       7.95      60.19       0.00      60.19       50.01     6.83   0.843
  58                        71.40       0.00       0.95      12.61      55.95       0.00      55.95        9.21     1.26   0.784
  59                        71.40       0.00       0.93      14.02      54.75       0.00      54.75        6.97     0.95   0.767
  60                        71.40       0.00       0.35      49.90      20.63       0.00      20.63        5.91     0.80   0.289
  61                        71.40       0.00       0.54      37.95      31.89       0.00      31.89       12.02     1.64   0.447
  62                        71.40       0.00       0.75      24.84      44.29       0.00      44.29       51.91     7.08   0.620
  63                        71.40       0.00       1.02       7.87      60.19       0.00      60.19      116.41    15.88   0.843
  64                        71.40       0.00       0.76      24.01      45.21       0.00      45.21        9.71     1.32   0.633
  65                        71.40       0.00       1.04       6.97      61.06       0.00      61.06       41.07     5.61   0.855
  66                        71.40       0.00       0.82      20.65      48.23       0.00      48.23       12.29     1.68   0.675
  67                        71.40       0.00       0.77      23.97      45.28       0.00      45.28       14.64     1.99   0.634
  68                        71.40       0.00       0.92      14.50      54.19       0.00      54.19        6.02     0.82   0.759
  69                        71.40       0.00       0.54      38.00      32.01       0.00      32.01       10.24     1.39   0.448
  70                        71.40       0.00       0.76      24.40      44.74       0.00      44.74       36.81     5.02   0.627
  71                        71.40       0.00       0.94      13.35      55.28       0.00      55.28        6.78     0.92   0.774
  72                        71.40       0.00       0.99      10.19      58.28       0.00      58.28        7.26     0.99   0.816
  73                        71.40       0.00       0.89      15.94      52.90       0.00      52.90        8.79     1.20   0.741
  74                        71.40       0.00       0.85      18.54      50.41       0.00      50.41       10.85     1.48   0.706
  75                        71.40       0.00       0.95      12.65      55.96       0.00      55.96        8.06     1.10   0.784
  76                        71.40       0.00       1.00       9.59      58.89       0.00      58.89        5.70     0.78   0.825
  77                        71.40       0.00       1.06       5.49      62.70       0.00      62.70        6.79     0.93   0.878
  78                        71.40       0.00       1.03       7.82      60.48       0.00      60.48        6.65     0.91   0.847
  79                        71.40       0.00       0.45      43.51      26.71       0.00      26.71       28.32     3.84   0.374
  80                        71.40       0.00       0.85      18.84      49.96       0.00      49.96       31.27     4.27   0.700
  81                        71.40       0.00       0.86      18.01      50.74       0.00      50.74       22.12     3.02   0.711
  82                        71.40       0.00       0.82      20.27      48.61       0.00      48.61       44.56     6.08   0.681
  83                        71.40       0.00       1.03       7.49      60.85       0.00      60.85        7.44     1.01   0.852
  84                        71.40       0.00       0.97      11.09      57.38       0.00      57.38        6.85     0.93   0.804
  85                        71.40       0.00       1.14       0.54      67.48       0.00      67.48        6.27     0.86   0.945
  86                        71.40       0.00       1.05       6.03      62.20       0.00      62.20        9.16     1.25   0.871
  87                        71.40       0.00       1.13       1.53      66.39       0.00      66.39        8.73     1.19   0.930
  88                        71.40       0.00       1.01       8.90      59.52       0.00      59.52        5.70     0.78   0.834
  89                        71.40       0.00       1.06       5.74      62.51       0.00      62.51       12.04     1.64   0.875
  90                        71.40       0.00       1.15       0.01      68.08       0.00      68.08        0.78     0.11   0.954
  91                        71.40       0.00       0.96      11.96      56.40       0.00      56.40       12.30     1.68   0.790
  92                        71.40       0.00       1.06       5.55      62.65       0.00      62.65        7.83     1.07   0.877
  93                        71.40       0.00       0.87      17.74      51.08       0.00      51.08       26.14     3.56   0.715
  94                        71.40       0.00       0.78      23.13      46.17       0.00      46.17        3.23     0.44   0.647
  95                        71.40       0.00       1.15       0.08      67.91       0.00      67.91        1.48     0.20   0.951
  96                        71.40       0.00       0.93      13.83      54.86       0.00      54.86        6.70     0.91   0.768
  97                        71.40       0.00       1.13       1.51      66.50       0.00      66.50        6.60     0.90   0.931
  98                        71.40       0.00       0.93      13.49      55.20       0.00      55.20        6.80     0.93   0.773
  99                        71.40       0.00       0.46      42.72      27.49       0.00      27.49       10.20     1.38   0.385
  100                       71.40       0.00       0.51      39.51      30.55       0.00      30.55        7.84     1.06   0.428
  101                       71.40       0.00       0.53      38.73      31.26       0.00      31.26       15.32     2.08   0.438
  102                       71.40       0.00       0.86      18.16      50.71       0.00      50.71       12.36     1.69   0.710
  103                       71.40       0.00       0.29      53.60      17.12       0.00      17.12        6.23     0.84   0.240
  104                       71.40       0.00       0.19      59.36      11.57       0.00      11.57       11.21     1.51   0.162
  105                       71.40       0.00       0.95      12.68      55.97       0.00      55.97        7.32     1.00   0.784
  106                       71.40       0.00       0.51      39.59      30.45       0.00      30.45        7.43     1.01   0.426
  
  
  ******************
  Node Depth Summary
  ******************
  
  ---------------------------------------------------------------------------------
                                 Average  Maximum  Maximum  Time of Max    Reported
                                   Depth    Depth      HGL   Occurrence   Max Depth
  Node                 Type       Meters   Meters   Meters  days hr:min      Meters
  ---------------------------------------------------------------------------------
  jd1                  JUNCTION     0.17     0.31   273.31     0  04:00        0.31
  jd2                  JUNCTION     1.45     3.00   270.00     0  03:12        3.00
  jd3                  JUNCTION     2.66     3.00   266.00     0  03:02        3.00
  jd4                  JUNCTION     1.73     3.00   270.00     0  03:09        3.00
  jd5                  JUNCTION     0.12     0.22   274.22     0  04:00        0.22
  jd6                  JUNCTION     0.16     0.31   275.31     0  04:00        0.31
  jd7                  JUNCTION     0.44     0.79   264.89     0  04:00        0.79
  jd8                  JUNCTION     1.90     3.00   267.00     0  03:06        3.00
  jd9                  JUNCTION     1.72     3.00   268.00     0  03:07        3.00
  jd10                 JUNCTION     2.67     3.00   273.00     0  02:58        3.00
  jd11                 JUNCTION     0.14     0.27   282.27     0  04:00        0.27
  jd12                 JUNCTION     2.72     3.00   272.00     0  02:37        3.00
  jd13                 JUNCTION     0.19     0.39   289.39     0  04:00        0.39
  jd14                 JUNCTION     1.40     3.00   283.00     0  03:10        3.00
  jd15                 JUNCTION     0.89     3.00   281.00     0  03:27        2.20
  jd16                 JUNCTION     1.23     3.00   277.00     0  03:20        3.00
  jd17                 JUNCTION     1.97     3.00   278.80     0  03:08        3.00
  jd18                 JUNCTION     1.40     3.00   282.00     0  03:13        3.00
  jd19                 JUNCTION     1.59     3.00   270.00     0  03:07        3.00
  jd20                 JUNCTION     0.34     0.68   273.68     0  04:00        0.68
  jd21                 JUNCTION     2.67     3.00   273.00     0  03:05        3.00
  jd22                 JUNCTION     1.94     3.00   275.00     0  03:05        3.00
  jd23                 JUNCTION     1.33     3.00   281.00     0  03:14        3.00
  jd24                 JUNCTION     0.21     0.41   285.41     0  04:00        0.41
  jd25                 JUNCTION     1.30     3.00   282.00     0  03:15        3.00
  jd26                 JUNCTION     1.41     3.00   288.00     0  03:10        3.00
  jd27                 JUNCTION     1.30     3.00   294.00     0  03:14        3.00
  jd28                 JUNCTION     2.77     3.00   290.00     0  02:17        3.00
  jd29                 JUNCTION     0.14     0.27   299.27     0  04:00        0.27
  jd30                 JUNCTION     0.17     0.31   290.31     0  04:00        0.31
  jd31                 JUNCTION     1.66     3.00   275.00     0  03:09        3.00
  jd32                 JUNCTION     2.75     3.00   275.00     0  02:25        3.00
  jd33                 JUNCTION     0.31     0.63   289.63     0  04:00        0.63
  jd34                 JUNCTION     1.34     3.00   297.00     0  03:09        3.00
  jd35                 JUNCTION     2.81     3.00   292.00     0  02:00        3.00
  jd36                 JUNCTION     1.49     3.00   302.00     0  03:10        3.00
  jd37                 JUNCTION     1.48     3.00   306.00     0  03:08        3.00
  jd38                 JUNCTION     1.36     3.00   300.00     0  03:14        3.00
  jd39                 JUNCTION     2.67     3.00   297.00     0  03:01        3.00
  jd40                 JUNCTION     1.62     3.00   302.00     0  03:12        3.00
  jd41                 JUNCTION     2.62     3.00   296.00     0  03:10        3.00
  jd42                 JUNCTION     1.15     3.00   308.00     0  03:27        3.00
  jd43                 JUNCTION     1.56     3.00   300.00     0  03:07        3.00
  jd44                 JUNCTION     1.59     3.00   286.00     0  03:10        3.00
  jd45                 JUNCTION     2.73     3.00   282.00     0  02:37        3.00
  jd46                 JUNCTION     1.31     3.00   278.00     0  03:20        3.00
  jd47                 JUNCTION     0.23     0.43   315.43     0  04:00        0.43
  jd48                 JUNCTION     0.17     0.33   325.33     0  04:00        0.33
  jd49                 JUNCTION     1.31     3.00   292.00     0  03:16        3.00
  jd50                 JUNCTION     2.78     3.00   278.00     0  02:12        3.00
  jd51                 JUNCTION     2.61     3.00   313.00     0  03:10        3.00
  jd52                 JUNCTION     1.09     3.00   326.00     0  03:14        2.16
  jd53                 JUNCTION     1.48     3.00   325.00     0  03:13        3.00
  jd54                 JUNCTION     0.91     3.00   329.00     0  03:23        2.27
  jd55                 JUNCTION     1.95     3.00   325.00     0  03:09        3.00
  jd56                 JUNCTION     0.37     0.80   327.80     0  04:00        0.80
  jd59                 JUNCTION     2.60     3.00   320.80     0  03:11        3.00
  jd60                 JUNCTION     2.72     3.00   319.00     0  02:36        3.00
  jd61                 JUNCTION     0.88     3.00   332.00     0  03:26        3.00
  jd62                 JUNCTION     0.11     0.22   335.22     0  04:00        0.22
  jd63                 JUNCTION     0.10     0.19   324.19     0  04:00        0.19
  jd64                 JUNCTION     2.50     3.00   321.00     0  03:11        3.00
  jd65                 JUNCTION     1.87     3.00   307.00     0  03:05        3.00
  jd66                 JUNCTION     2.66     3.00   304.00     0  03:02        3.00
  jd69                 JUNCTION     1.27     3.00   336.00     0  03:14        3.00
  jd79                 JUNCTION     2.55     3.00   274.00     0  02:24        3.00
  jd80                 JUNCTION     1.97     3.00   279.00     0  03:04        3.00
  jd81                 JUNCTION     0.88     3.00   291.00     0  03:29        3.00
  jd83                 JUNCTION     2.82     3.00   323.00     0  01:58        3.00
  jd84                 JUNCTION     1.35     3.00   326.00     0  03:07        3.00
  jd85                 JUNCTION     2.66     3.00   324.00     0  03:01        3.00
  jd87                 JUNCTION     2.69     3.00   322.00     0  02:47        3.00
  jd89                 JUNCTION     1.22     3.00   327.00     0  03:17        3.00
  jd90                 JUNCTION     0.24     0.52   328.52     0  04:00        0.52
  jd92                 JUNCTION     0.93     3.00   329.00     0  03:14        2.61
  jd93                 JUNCTION     1.50     3.00   327.00     0  03:11        3.00
  jd94                 JUNCTION     1.11     3.00   329.20     0  03:13        2.41
  jd95                 JUNCTION     1.34     3.00   330.00     0  03:10        2.92
  jd96                 JUNCTION     2.70     3.00   308.00     0  02:49        3.00
  jd97                 JUNCTION     1.38     3.00   330.20     0  03:10        3.00
  jd98                 JUNCTION     1.26     3.00   332.00     0  03:12        3.00
  jd99                 JUNCTION     2.65     3.00   327.00     0  03:02        3.00
  jd101                JUNCTION     0.15     0.27   321.27     0  04:00        0.27
  jd102                JUNCTION     1.32     3.00   327.00     0  03:11        3.00
  jd103                JUNCTION     0.17     0.35   318.35     0  04:00        0.35
  jd106                JUNCTION     2.63     3.00   287.00     0  03:07        3.00
  jd107                JUNCTION     0.32     0.60   332.60     0  04:00        0.60
  jd108                JUNCTION     1.38     1.98   327.98     0  04:00        1.98
  jd109                JUNCTION     1.20     3.00   346.00     0  03:18        3.00
  jd110                JUNCTION     2.66     3.00   327.00     0  03:02        3.00
  jd111                JUNCTION     0.10     0.20   344.20     0  04:00        0.20
  jd112                JUNCTION     0.13     0.23   334.23     0  04:00        0.23
  jd113                JUNCTION     0.15     0.29   348.29     0  04:00        0.29
  jd114                JUNCTION     2.72     3.00   317.00     0  03:02        3.00
  jd117                JUNCTION     1.80     3.00   319.00     0  03:07        3.00
  jd118                JUNCTION     0.14     0.27   330.27     0  04:00        0.27
  jd120                JUNCTION     1.26     3.00   330.00     0  03:13        3.00
  jd121                JUNCTION     1.22     3.00   323.00     0  03:17        3.00
  jd122                JUNCTION     2.66     3.00   276.00     0  03:02        3.00
  jd123                JUNCTION     2.65     3.00   276.20     0  03:02        3.00
  jd124                JUNCTION     2.85     3.00   271.00     0  01:44        3.00
  jd125                JUNCTION     1.68     3.00   278.00     0  03:09        3.00
  jd126                JUNCTION     2.82     3.00   275.00     0  01:58        3.00
  jd135                JUNCTION     0.76     3.00   292.00     0  03:16        2.21
  jd136                JUNCTION     1.31     3.00   344.00     0  03:11        3.00
  psk1                 OUTFALL      0.13     0.23   279.23     0  04:00        0.23
  psk2                 OUTFALL      0.17     0.31   270.31     0  04:00        0.31
  psk3                 OUTFALL      0.52     1.00   272.00     0  03:17        1.00
  psk4                 OUTFALL      0.04     0.20   280.20     0  03:27        0.16
  psk5                 OUTFALL      0.17     0.31   263.31     0  04:00        0.31
  psk6                 OUTFALL      0.12     0.22   259.22     0  04:00        0.22
  psk7                 OUTFALL      0.44     0.79   262.79     0  04:00        0.79
  psk8                 OUTFALL      0.00     0.00   317.00     0  00:00        0.00
  
  
  *******************
  Node Inflow Summary
  *******************
  
  -------------------------------------------------------------------------------------------------
                                  Maximum  Maximum                  Lateral       Total        Flow
                                  Lateral    Total  Time of Max      Inflow      Inflow     Balance
                                   Inflow   Inflow   Occurrence      Volume      Volume       Error
  Node                 Type           CMS      CMS  days hr:min    10^6 ltr    10^6 ltr     Percent
  -------------------------------------------------------------------------------------------------
  jd1                  JUNCTION     1.613    2.020     0  04:00        11.9        15.6       0.066
  jd2                  JUNCTION     2.507    3.215     0  04:00        18.4        23.8       0.090
  jd3                  JUNCTION     3.004    4.723     0  04:00          22        40.8       0.985
  jd4                  JUNCTION     3.618    3.969     0  04:00        26.5        29.1       0.093
  jd5                  JUNCTION     1.054    1.505     0  04:00        7.73        11.5       0.024
  jd6                  JUNCTION     1.218    1.218     0  04:00        8.92        8.92       0.031
  jd7                  JUNCTION     0.614    4.044     0  04:00        4.52        35.7       0.119
  jd8                  JUNCTION     0.854    1.800     0  04:00        6.28        18.5       0.849
  jd9                  JUNCTION     0.656    1.724     0  04:00        4.82        17.7       0.109
  jd10                 JUNCTION     1.749    2.196     0  04:00        12.8        16.1       0.639
  jd11                 JUNCTION     2.582    2.582     0  04:00        18.9        18.9       0.027
  jd12                 JUNCTION     1.946    4.413     0  04:00        14.2          32       0.438
  jd13                 JUNCTION     3.525    3.525     0  04:00        25.8        25.8       0.032
  jd14                 JUNCTION     4.138    4.699     0  04:00        30.3        34.4       0.064
  jd15                 JUNCTION     1.701    2.585     0  03:27        12.5        20.2       0.181
  jd16                 JUNCTION     1.828    6.168     0  04:00        13.4        47.7       0.079
  jd17                 JUNCTION     3.826    6.916     0  04:00          28        55.2       0.907
  jd18                 JUNCTION     3.032    4.481     0  04:00        22.2        32.7       0.080
  jd19                 JUNCTION     2.815    4.863     0  04:00        20.6        37.2       0.105
  jd20                 JUNCTION     2.340    2.528     0  04:00        17.1          21       0.191
  jd21                 JUNCTION     1.086    4.530     0  04:00        7.94        38.8       0.867
  jd22                 JUNCTION     1.912    2.909     0  04:00          14        23.2       0.356
  jd23                 JUNCTION     1.890    4.687     0  04:00        13.8        36.5      -0.015
  jd24                 JUNCTION     3.105    3.105     0  04:00        22.7        22.7       0.033
  jd25                 JUNCTION     2.442    3.602     0  04:00        17.9        26.2       0.047
  jd26                 JUNCTION     3.554    5.019     0  04:00          26        38.1       0.068
  jd27                 JUNCTION     3.661    4.284     0  04:00        26.8        33.7       0.076
  jd28                 JUNCTION     4.997    5.922     0  04:00        36.6        44.9       0.303
  jd29                 JUNCTION     2.000    2.000     0  04:00        14.6        14.6       0.006
  jd30                 JUNCTION     2.083    4.112     0  04:00        15.2        33.4       0.053
  jd31                 JUNCTION     1.392    2.143     0  04:00        10.2        17.6       2.580
  jd32                 JUNCTION     2.822    6.155     0  04:00        20.7        53.1       0.474
  jd33                 JUNCTION     2.779    3.862     0  04:00        20.4        29.7       0.059
  jd34                 JUNCTION     3.436    3.436     0  04:00        25.2        25.2       0.023
  jd35                 JUNCTION     3.136    5.317     0  04:00          23        45.7       0.296
  jd36                 JUNCTION     5.335    6.513     0  04:00          39        50.5       0.064
  jd37                 JUNCTION     5.607    5.607     0  04:00        41.1        41.1       0.073
  jd38                 JUNCTION     5.149    5.956     0  04:00        37.7        46.7       0.126
  jd39                 JUNCTION     3.565    7.084     0  04:00        26.1        61.6       0.836
  jd40                 JUNCTION     6.080    8.277     0  04:00        44.5          68       0.135
  jd41                 JUNCTION     4.269   12.167     0  04:00        31.3        96.5       2.173
  jd42                 JUNCTION     5.608    6.146     0  04:00        41.1          45       0.072
  jd43                 JUNCTION     6.278    9.070     0  04:00        46.1        69.6       0.114
  jd44                 JUNCTION     8.413   11.289     0  04:00        61.6        92.4       0.098
  jd45                 JUNCTION     3.420    5.646     0  04:00        25.1        49.9       0.653
  jd46                 JUNCTION     1.560    1.560     0  04:00        11.4        11.4       0.167
  jd47                 JUNCTION     5.019    5.019     0  04:00        36.8        36.8      -0.001
  jd48                 JUNCTION     1.388    1.388     0  04:00        10.2        10.2       0.038
  jd49                 JUNCTION     6.830    6.830     0  04:00          50          50       0.055
  jd50                 JUNCTION     7.078   11.008     0  04:00        51.9        94.3       0.465
  jd51                 JUNCTION     1.477    6.181     0  04:00        10.8        46.8       2.969
  jd52                 JUNCTION     3.018    7.417     0  03:14        22.1          38       0.140
  jd53                 JUNCTION     1.679    6.139     0  04:00        12.3        48.3       0.043
  jd54                 JUNCTION     0.901    4.148     0  04:00         6.6        31.5       0.082
  jd55                 JUNCTION     1.642    7.404     0  04:00          12        52.2       1.382
  jd56                 JUNCTION     0.997    2.808     0  04:00        7.32          21       0.065
  jd59                 JUNCTION     0.990    3.775     0  04:00        7.26        29.6       2.592
  jd60                 JUNCTION     1.773    3.790     0  04:00          13          28       0.470
  jd61                 JUNCTION     1.990    2.369     0  04:00        14.6        17.3       0.042
  jd62                 JUNCTION     0.800    1.063     0  04:00         5.9        7.57       0.007
  jd63                 JUNCTION     1.099    1.099     0  04:00        8.06        8.06       0.029
  jd64                 JUNCTION     0.926    2.287     0  04:00        6.78        16.8       2.211
  jd65                 JUNCTION    15.884   15.884     0  04:00         116         116       0.047
  jd66                 JUNCTION     2.078    4.881     0  04:00        15.3        38.4       0.820
  jd69                 JUNCTION     3.840    3.840     0  04:00        28.3        28.4       0.062
  jd79                 JUNCTION     3.740    4.656     0  04:00        27.4        36.7       0.488
  jd80                 JUNCTION     4.155    4.763     0  04:00        30.4        36.1       0.244
  jd81                 JUNCTION     3.158    3.158     0  04:00        23.1        23.1       0.009
  jd83                 JUNCTION     3.287    3.865     0  04:00        24.2        29.2       0.307
  jd84                 JUNCTION     4.177    4.177     0  04:00        30.8        30.8       0.052
  jd85                 JUNCTION     0.949    1.788     0  04:00        6.97        12.9       0.657
  jd87                 JUNCTION     0.777    1.904     0  04:00         5.7        14.1       0.537
  jd89                 JUNCTION     0.907    0.907     0  04:00        6.64        6.64       0.062
  jd90                 JUNCTION     0.925    0.925     0  04:00        6.78        6.78       0.042
  jd92                 JUNCTION     0.777    0.777     0  04:00         5.7         5.7       0.032
  jd93                 JUNCTION     1.677    2.673     0  04:00        12.3          21       0.099
  jd94                 JUNCTION     0.106    1.397     0  03:13       0.781        8.74       0.018
  jd95                 JUNCTION     0.202    1.304     0  03:13        1.48        7.98       0.236
  jd96                 JUNCTION     1.515    2.022     0  04:00        11.2        14.9       0.671
  jd97                 JUNCTION     1.636    1.636     0  04:00          12          12       0.043
  jd98                 JUNCTION     0.913    0.913     0  04:00         6.7         6.7       0.046
  jd99                 JUNCTION     0.439    0.804     0  04:00        3.23        6.56       0.865
  jd101                JUNCTION     1.196    1.907     0  04:00        8.78        14.8       0.006
  jd102                JUNCTION     1.193    1.193     0  04:00        8.73        8.73       0.052
  jd103                JUNCTION     0.821    0.821     0  04:00        6.02        6.02       0.021
  jd106                JUNCTION     0.642    3.466     0  04:00        4.71          26       1.474
  jd107                JUNCTION     0.927    2.822     0  04:00         6.8        21.6       0.087
  jd108                JUNCTION     1.008    1.008     0  04:00        7.42        7.45       0.878
  jd109                JUNCTION     1.685    1.685     0  04:00        12.4        12.4       0.014
  jd110                JUNCTION     1.280    1.904     0  04:00        9.49        14.1       1.069
  jd111                JUNCTION     1.062    1.062     0  04:00        7.83        7.83       0.010
  jd112                JUNCTION     1.250    2.813     0  04:00        9.16          22       0.038
  jd113                JUNCTION     0.840    0.840     0  04:00        6.22        6.22      -0.005
  jd114                JUNCTION     1.014    4.730     0  04:00        7.43        44.7       0.716
  jd117                JUNCTION     0.935    2.802     0  04:00        6.85        21.2       0.746
  jd118                JUNCTION     0.856    0.856     0  04:00        6.27        6.27       0.011
  jd120                JUNCTION     1.069    1.069     0  04:00        7.83        7.83       0.028
  jd121                JUNCTION     1.321    1.321     0  04:00         9.7         9.7       0.038
  jd122                JUNCTION     3.135    8.581     0  04:00          23        72.1       0.787
  jd123                JUNCTION     3.222    5.966     0  04:00        23.6          54       1.290
  jd124                JUNCTION     4.655    5.728     0  04:00        34.1        48.4       0.124
  jd125                JUNCTION     4.530    6.205     0  04:00        33.1        53.9       0.053
  jd126                JUNCTION     6.581    7.443     0  04:00        48.2        56.8       0.185
  jd135                JUNCTION     1.667    1.667     0  04:00        12.2        12.2       0.023
  jd136                JUNCTION     1.382    2.223     0  04:00        10.2        16.4       0.070
  psk1                 OUTFALL      0.000    1.377     0  04:00           0        10.7       0.000
  psk2                 OUTFALL      0.000    3.177     0  04:00           0        25.5       0.000
  psk3                 OUTFALL      0.000    5.968     0  03:34           0        47.2       0.000
  psk4                 OUTFALL      0.000    0.278     0  03:27           0       0.587       0.000
  psk5                 OUTFALL      0.000    1.312     0  04:00           0        10.1       0.000
  psk6                 OUTFALL      0.000    1.154     0  04:00           0        8.81       0.000
  psk7                 OUTFALL      0.000    4.044     0  04:00           0        35.6       0.000
  psk8                 OUTFALL      0.000    0.000     0  00:00           0           0       0.000 ltr
  
  
  **********************
  Node Surcharge Summary
  **********************
  
  Surcharging occurs when water rises above the top of the highest conduit.
  ---------------------------------------------------------------------
                                               Max. Height   Min. Depth
                                   Hours       Above Crown    Below Rim
  Node                 Type      Surcharged         Meters       Meters
  ---------------------------------------------------------------------
  jd2                  JUNCTION        2.13          2.200        0.000
  jd3                  JUNCTION        6.96          2.200        0.000
  jd4                  JUNCTION        2.94          2.200        0.000
  jd8                  JUNCTION        3.44          2.200        0.000
  jd9                  JUNCTION        2.99          2.200        0.000
  jd10                 JUNCTION        7.04          2.400        0.000
  jd12                 JUNCTION        7.39          2.400        0.000
  jd14                 JUNCTION        2.06          2.400        0.000
  jd15                 JUNCTION        1.59          2.000        0.000
  jd16                 JUNCTION        1.75          2.000        0.000
  jd17                 JUNCTION        3.57          2.200        0.000
  jd18                 JUNCTION        2.02          2.000        0.000
  jd19                 JUNCTION        2.46          2.200        0.000
  jd21                 JUNCTION        7.06          2.200        0.000
  jd22                 JUNCTION        6.92          2.400        0.000
  jd23                 JUNCTION        1.96          2.000        0.000
  jd25                 JUNCTION        1.86          2.000        0.000
  jd26                 JUNCTION        2.07          2.400        0.000
  jd27                 JUNCTION        1.89          2.400        0.000
  jd28                 JUNCTION        7.72          2.400        0.000
  jd31                 JUNCTION        6.85          2.200        0.000
  jd32                 JUNCTION        7.59          2.200        0.000
  jd34                 JUNCTION        1.97          2.400        0.000
  jd35                 JUNCTION        8.01          2.400        0.000
  jd36                 JUNCTION        2.24          2.400        0.000
  jd37                 JUNCTION        2.21          2.400        0.000
  jd38                 JUNCTION        1.91          2.000        0.000
  jd39                 JUNCTION        6.98          2.000        0.000
  jd40                 JUNCTION        2.48          2.200        0.000
  jd41                 JUNCTION        6.82          1.000        0.000
  jd42                 JUNCTION        1.58          2.200        0.000
  jd43                 JUNCTION        2.28          2.200        0.000
  jd44                 JUNCTION        2.39          2.000        0.000
  jd45                 JUNCTION        7.38          2.000        0.000
  jd46                 JUNCTION        1.86          2.200        0.000
  jd49                 JUNCTION        1.86          2.200        0.000
  jd50                 JUNCTION        7.80          2.200        0.000
  jd51                 JUNCTION        6.82          1.350        0.000
  jd52                 JUNCTION        2.08          1.500        0.000
  jd53                 JUNCTION        2.16          1.800        0.000
  jd54                 JUNCTION        1.67          1.800        0.000
  jd55                 JUNCTION        2.49          1.500        0.000
  jd59                 JUNCTION        6.81          1.500        0.000
  jd60                 JUNCTION        7.41          2.400        0.000
  jd61                 JUNCTION        1.57          2.400        0.000
  jd64                 JUNCTION        6.81          1.800        0.000
  jd65                 JUNCTION        3.16          2.400        0.000
  jd66                 JUNCTION        6.95          2.200        0.000
  jd69                 JUNCTION        1.81          2.200        0.000
  jd79                 JUNCTION        7.61          2.400        0.000
  jd80                 JUNCTION        3.87          2.400        0.000
  jd81                 JUNCTION        1.53          2.400        0.000
  jd83                 JUNCTION        8.04          2.400        0.000
  jd84                 JUNCTION        2.00          2.400        0.000
  jd85                 JUNCTION        6.98          2.400        0.000
  jd87                 JUNCTION        7.22          2.400        0.000
  jd89                 JUNCTION        1.77          2.400        0.000
  jd92                 JUNCTION        1.80          2.400        0.000
  jd93                 JUNCTION        2.26          2.200        0.000
  jd94                 JUNCTION        2.06          2.200        0.000
  jd95                 JUNCTION        2.03          2.200        0.000
  jd96                 JUNCTION        7.20          2.200        0.000
  jd97                 JUNCTION        2.03          2.200        0.000
  jd98                 JUNCTION        1.85          2.400        0.000
  jd99                 JUNCTION        6.96          2.400        0.000
  jd102                JUNCTION        1.93          2.400        0.000
  jd106                JUNCTION        6.88          2.000        0.000
  jd108                JUNCTION        7.25          0.978        1.022
  jd109                JUNCTION        1.72          2.400        0.000
  jd110                JUNCTION        6.95          2.000        0.000
  jd114                JUNCTION        7.41          2.000        0.000
  jd117                JUNCTION        6.97          2.200        0.000
  jd120                JUNCTION        1.84          2.400        0.000
  jd121                JUNCTION        1.76          2.400        0.000
  jd122                JUNCTION        7.08          2.200        0.000
  jd123                JUNCTION        6.96          2.200        0.000
  jd124                JUNCTION        8.26          2.400        0.000
  jd125                JUNCTION        2.83          2.200        0.000
  jd126                JUNCTION        8.03          2.400        0.000
  jd135                JUNCTION        1.75          2.400        0.000
  jd136                JUNCTION        1.87          2.200        0.000
  
  
  *********************
  Node Flooding Summary
  *********************
  
  Flooding refers to all water that overflows a node, whether it ponds or not.
  --------------------------------------------------------------------------
                                                             Total   Maximum
                                 Maximum   Time of Max       Flood    Ponded
                        Hours       Rate    Occurrence      Volume     Depth
  Node                 Flooded       CMS   days hr:min    10^6 ltr    Meters
  --------------------------------------------------------------------------
  jd2                     1.99     2.006      0  04:00      11.839     0.000
  jd3                     6.96     4.723      0  04:00      40.391     0.000
  jd4                     2.51     3.459      0  04:00      22.308     0.000
  jd8                     2.29     0.765      0  04:00       4.719     0.000
  jd9                     2.27     1.477      0  03:07       5.423     0.000
  jd10                    7.03     2.196      0  04:00      16.034     0.000
  jd12                    7.37     4.413      0  04:00      31.858     0.000
  jd14                    1.98     3.060      0  04:00      17.993     0.000
  jd15                    0.01     0.584      0  03:27       0.005     0.000
  jd16                    0.67     1.024      0  03:20       0.411     0.000
  jd17                    2.93     6.087      0  04:00      41.752     0.000
  jd18                    1.93     2.957      0  04:00      17.695     0.000
  jd19                    2.18     3.796      0  04:00      24.244     0.000
  jd21                    6.92     4.530      0  04:00      38.165     0.000
  jd22                    2.28     2.085      0  04:00      13.809     0.000
  jd23                    1.83     1.671      0  04:00      10.181     0.000
  jd25                    1.78     1.702      0  03:15       4.396     0.000
  jd26                    2.02     3.123      0  04:00      19.159     0.000
  jd27                    1.82     1.405      0  04:00       7.415     0.000
  jd28                    7.71     5.922      0  04:00      44.796     0.000
  jd31                    0.04     1.459      0  03:09       0.020     0.000
  jd32                    7.59     6.155      0  04:00      52.842     0.000
  jd34                    1.93     1.606      0  04:00       9.276     0.000
  jd35                    8.00     5.317      0  04:00      45.553     0.000
  jd36                    2.14     4.456      0  04:00      27.489     0.000
  jd37                    2.13     4.261      0  04:00      26.168     0.000
  jd38                    1.81     1.767      0  04:00       9.173     0.000
  jd39                    6.97     7.084      0  04:00      61.131     0.000
  jd40                    2.37     5.715      0  04:00      37.252     0.000
  jd41                    6.82    12.167      0  04:00      94.400     0.000
  jd42                    1.55     0.789      0  04:00       2.422     0.000
  jd43                    2.24     7.239      0  04:00      47.893     0.000
  jd44                    2.18     7.389      0  04:00      46.832     0.000
  jd45                    7.37     5.645      0  04:00      49.529     0.000
  jd46                    1.77     0.809      0  04:00       4.237     0.000
  jd49                    1.82     2.948      0  04:00      15.644     0.000
  jd50                    7.80    11.008      0  04:00      93.889     0.000
  jd51                    6.82     6.181      0  04:00      45.419     0.000
  jd52                    0.03     4.881      0  03:14       0.200     0.000
  jd53                    1.98     3.837      0  04:00      23.639     0.000
  jd54                    0.01     0.497      0  03:23       0.005     0.000
  jd55                    2.14     7.404      0  04:00      47.293     0.000
  jd59                    6.81     3.775      0  04:00      28.836     0.000
  jd60                    7.40     3.790      0  04:00      27.903     0.000
  jd61                    0.61     0.189      0  03:26       0.131     0.000
  jd64                    1.87     0.952      0  03:11       4.649     0.000
  jd65                    3.12    14.791      0  04:00      99.000     0.000
  jd66                    6.95     4.881      0  04:00      38.100     0.000
  jd69                    1.78     0.774      0  04:00       3.651     0.000
  jd79                    3.45     4.469      0  04:00      32.693     0.000
  jd80                    3.15     4.605      0  04:00      32.561     0.000
  jd81                    0.60     0.178      0  03:29       0.237     0.000
  jd83                    8.04     3.865      0  04:00      29.123     0.000
  jd84                    1.96     2.337      0  04:00      14.234     0.000
  jd85                    6.98     1.788      0  04:00      12.817     0.000
  jd87                    7.21     1.904      0  04:00      14.001     0.000
  jd89                    1.73     0.148      0  04:00       0.595     0.000
  jd92                    0.01     0.075      0  03:14       0.000     0.000
  jd93                    1.95     1.530      0  04:00       9.315     0.000
  jd94                    0.01     0.894      0  03:13       0.017     0.000
  jd95                    0.02     0.346      0  03:10       0.005     0.000
  jd96                    7.18     2.022      0  04:00      14.824     0.000
  jd97                    1.91     0.949      0  04:00       5.506     0.000
  jd98                    1.72     0.110      0  04:00       0.361     0.000
  jd99                    6.96     0.804      0  04:00       6.503     0.000
  jd102                   1.87     0.482      0  04:00       2.654     0.000
  jd106                   6.88     3.466      0  04:00      25.603     0.000
  jd109                   1.70     0.228      0  04:00       0.797     0.000
  jd110                   6.95     1.904      0  04:00      13.948     0.000
  jd114                   6.97     4.730      0  04:00      44.265     0.000
  jd117                   1.98     1.388      0  04:00       8.391     0.000
  jd120                   1.75     0.180      0  04:00       0.748     0.000
  jd121                   1.73     0.272      0  04:00       1.206     0.000
  jd122                   6.96     8.581      0  04:00      71.476     0.000
  jd123                   4.43     5.651      0  04:00      45.624     0.000
  jd124                   8.26     5.728      0  04:00      48.361     0.000
  jd125                   2.29     3.819      0  04:00      24.158     0.000
  jd126                   8.03     7.443      0  04:00      56.676     0.000
  jd135                   0.01     0.104      0  03:16       0.000     0.000
  jd136                   1.85     0.660      0  04:00       3.584     0.000
  
  
  ***********************
  Outfall Loading Summary
  ***********************
  
  -----------------------------------------------------------
                         Flow       Avg       Max       Total
                         Freq      Flow      Flow      Volume
  Outfall Node           Pcnt       CMS       CMS    10^6 ltr
  -----------------------------------------------------------
  psk1                  97.14     0.634     1.377      10.692
  psk2                  97.09     1.496     3.177      25.540
  psk3                  97.18     2.796     5.968      47.239
  psk4                  34.36     0.105     0.278       0.587
  psk5                  97.18     0.595     1.312      10.146
  psk6                  97.09     0.520     1.154       8.807
  psk7                  97.18     1.991     4.044      35.617
  psk8                   0.00     0.000     0.000       0.000
  -----------------------------------------------------------
  System                77.15     8.137     0.000     138.629
  
  
  ********************
  Link Flow Summary
  ********************
  
  -----------------------------------------------------------------------------
                                 Maximum  Time of Max   Maximum    Max/    Max/
                                  |Flow|   Occurrence   |Veloc|    Full    Full
  Link                 Type          CMS  days hr:min     m/sec    Flow   Depth
  -----------------------------------------------------------------------------
  GQ1                  CONDUIT     0.407     0  04:00      1.98    1.07    0.76
  GQ2                  CONDUIT     2.213     0  05:05      2.90    1.05    1.00
  GQ3                  CONDUIT     1.377     0  04:00      7.87    0.05    0.16
  GQ4                  CONDUIT     0.510     0  03:54      1.80    1.00    1.00
  GQ5                  CONDUIT     1.208     0  03:28      2.40    1.00    1.00
  GQ6                  CONDUIT     0.708     0  04:00      1.90    0.32    0.69
  GQ7                  CONDUIT     1.675     0  04:03      3.46    1.00    1.00
  GQ8                  CONDUIT     1.045     0  03:43      2.08    1.00    1.00
  GQ9                  CONDUIT     2.837     0  03:30      5.74    1.00    1.00
  GQ10                 CONDUIT     1.134     0  06:16      4.10    1.04    1.00
  GQ11                 CONDUIT     0.538     0  04:00      2.69    0.58    0.77
  GQ12                 CONDUIT     0.701     0  04:00      2.80    0.76    0.83
  GQ13                 CONDUIT     0.351     0  04:00      1.04    0.17    0.64
  GQ14                 CONDUIT     0.211     0  04:00      1.45    0.30    0.33
  GQ15                 CONDUIT     0.249     0  03:13      4.44    1.00    0.87
  GQ16                 CONDUIT     2.028     0  04:00      4.11    0.98    0.65
  GQ17                 CONDUIT     1.007     0  04:00      2.73    0.32    0.69
  GQ18                 CONDUIT     1.118     0  03:14      2.50    5.04    0.99
  GQ19                 CONDUIT     1.387     0  04:00      3.27    0.16    0.53
  GQ20                 CONDUIT     0.304     0  04:00      0.64    0.16    0.64
  GQ21                 CONDUIT     1.145     0  04:00      1.93    0.36    0.71
  GQ22                 CONDUIT     1.160     0  04:00      2.08    0.36    0.71
  GQ23                 CONDUIT     2.040     0  03:34      2.60    1.00    1.00
  GQ24                 CONDUIT     2.020     0  03:30      4.02    1.00    1.00
  GQ25                 CONDUIT     1.105     0  04:10      4.12    1.24    1.00
  GQ26                 CONDUIT     0.835     0  03:15      3.18    0.98    1.00
  GQ27                 CONDUIT     0.997     0  03:33      3.52    1.00    1.00
  GQ28                 CONDUIT     0.479     0  04:00      0.99    0.51    0.92
  GQ29                 CONDUIT     2.142     0  04:00      4.26    1.00    1.00
  GQ30                 CONDUIT     0.824     0  03:39      2.91    1.00    1.00
  GQ31                 CONDUIT     0.747     0  03:28      2.64    1.00    1.00
  GQ32                 CONDUIT     0.737     0  03:14      2.97    1.18    1.00
  GQ33                 CONDUIT     1.434     0  03:30      5.07    1.00    1.00
  GQ34                 CONDUIT     0.638     0  04:09      2.26    1.00    1.00
  GQ35                 CONDUIT     0.709     0  03:10      2.52    1.31    1.00
  GQ36                 CONDUIT     0.970     0  03:10      3.44    1.20    1.00
  GQ37                 CONDUIT     0.699     0  04:43      2.47    1.00    1.00
  GQ38                 CONDUIT     0.227     0  04:00      0.99    0.32    0.76
  GQ39                 CONDUIT     0.782     0  03:39      2.76    1.00    1.00
  GQ40                 CONDUIT     0.804     0  04:01      2.84    1.00    1.00
  GQ41                 CONDUIT     2.160     0  03:35      2.75    1.00    1.00
  GQ42                 CONDUIT     1.359     0  03:35      2.70    1.00    1.00
  GQ43                 CONDUIT     2.298     0  05:31      4.70    1.03    1.00
  GQ44                 CONDUIT     0.946     0  03:32      1.88    1.00    1.00
  GQ45                 CONDUIT     2.048     0  04:00      4.23    0.83    0.92
  GQ46                 CONDUIT     1.314     0  03:07      2.64    1.23    1.00
  GQ47                 CONDUIT     0.447     0  04:00      2.03    0.42    0.73
  GQ48                 CONDUIT     0.444     0  04:00      2.02    0.42    0.73
  GQ49                 CONDUIT     2.023     0  04:00      8.09    0.76    0.83
  GQ50                 CONDUIT     0.561     0  04:00      2.25    0.73    0.83
  GQ51                 CONDUIT     0.993     0  03:15      3.70    1.51    1.00
  GQ52                 CONDUIT     0.859     0  05:06      1.71    1.14    1.00
  GQ53                 CONDUIT     2.225     0  03:59      2.83    1.00    1.00
  GQ54                 CONDUIT     1.167     0  03:34      4.13    1.00    1.00
  GQ55                 CONDUIT     0.850     0  04:00      3.63    0.58    0.77
  GQ56                 CONDUIT     1.986     0  03:10      4.20    1.08    1.00
  GQ57                 CONDUIT     1.531     0  03:46      3.05    1.00    1.00
  GQ58                 CONDUIT     3.188     0  04:04      6.34    1.00    1.00
  GQ59                 CONDUIT     1.203     0  03:33      2.39    1.00    1.00
  GQ60                 CONDUIT     4.091     0  03:14      2.53    0.99    1.00
  GQ61                 CONDUIT     0.584     0  04:00      0.54    0.07    0.59
  GQ62                 CONDUIT     1.511     0  04:00      1.06    0.15    0.63
  GQ63                 CONDUIT     3.507     0  04:00      1.75    0.10    0.61
  GQ64                 CONDUIT     0.379     0  04:00      2.27    0.29    0.69
  GQ65                 CONDUIT     0.263     0  04:00      1.28    0.47    0.69
  GQ66                 CONDUIT     0.436     0  04:00      1.33    0.13    0.62
  GQ67                 CONDUIT     1.442     0  04:05      1.28    1.00    1.00
  GQ68                 CONDUIT     2.443     0  04:00      3.28    0.78    0.90
  GQ69                 CONDUIT     2.930     0  03:13      5.97    1.05    1.00
  GQ70                 CONDUIT     1.154     0  04:00     10.23    0.17    0.28
  GQ71                 CONDUIT     1.312     0  04:00      7.25    0.32    0.39
  GQ72                 CONDUIT     4.044     0  04:00      6.07    0.97    0.79
  GQ73                 CONDUIT     3.177     0  04:00     15.45    0.20    0.31
  GQ74                 CONDUIT     0.891     0  04:00      1.97    0.16    0.64
  GQ75                 CONDUIT     0.709     0  04:00      1.30    0.21    0.65
  GQ76                 CONDUIT     5.968     0  03:34      7.60    1.29    1.00
  GQ77                 CONDUIT     0.278     0  03:27      0.57    0.08    0.60
  GQ78                 CONDUIT     0.916     0  03:26      3.24    1.00    1.00
  GQ79                 CONDUIT     0.256     0  03:13      1.08    0.55    1.00
  GQ80                 CONDUIT     0.608     0  03:43      2.15    1.00    1.00
  GQ81                 CONDUIT     0.603     0  03:07      2.15    3.82    1.00
  GQ82                 CONDUIT     1.450     0  03:38      5.13    1.00    1.00
  GQ83                 CONDUIT     1.564     0  03:34      5.73    1.00    1.00
  GQ84                 CONDUIT     1.350     0  03:07      4.81    1.07    1.00
  GQ85                 CONDUIT     0.579     0  03:29      2.05    1.00    1.00
  GQ86                 CONDUIT     0.684     0  04:00      3.31    0.29    0.69
  GQ87                 CONDUIT     0.155     0  04:00      0.78    0.23    0.66
  GQ88                 CONDUIT     1.127     0  03:51      3.98    1.00    1.00
  GQ89                 CONDUIT     0.759     0  03:59      2.68    1.00    1.00
  GQ90                 CONDUIT     0.924     0  04:00      3.37    0.93    0.93
  GQ91                 CONDUIT     0.777     0  04:00      2.75    0.95    1.00
  GQ92                 CONDUIT     1.302     0  03:13      2.79    1.88    1.00
  GQ93                 CONDUIT     0.996     0  04:00      1.98    0.86    1.00
  GQ94                 CONDUIT     1.469     0  03:12      2.95    1.74    1.00
  GQ95                 CONDUIT     0.507     0  04:00      1.54    0.13    0.62
  GQ96                 CONDUIT     1.140     0  03:13      2.27    1.95    1.00
  GQ97                 CONDUIT     0.811     0  03:17      2.87    1.46    1.00
  GQ98                 CONDUIT     0.365     0  04:00      1.29    0.52    1.00
  GQ99                 CONDUIT     1.323     0  04:00      1.22    0.07    0.59
  GQ100                CONDUIT     0.711     0  04:00      3.31    1.22    0.73
  GQ101                CONDUIT     0.821     0  04:00      3.43    0.61    0.79
  GQ102                CONDUIT     3.105     0  04:00      6.53    0.94    0.90
  GQ103                CONDUIT     0.650     0  03:40      2.30    1.00    1.00
  GQ104                CONDUIT     1.387     0  05:09      5.02    1.01    1.00
  GQ105                CONDUIT     0.534     0  03:02      1.07    1.70    1.00
  GQ106                CONDUIT     0.800     0  04:00      3.14    0.80    0.84
  GQ107                CONDUIT     1.114     0  03:25      3.94    1.00    1.00
  GQ108                CONDUIT     0.829     0  04:27      1.65    1.00    1.00
  GQ109                CONDUIT     0.661     0  04:00      2.34    0.90    1.00
  GQ110                CONDUIT     1.109     0  04:00      2.10    0.16    0.64
  GQ111                CONDUIT     1.007     0  04:00      3.56    0.92    1.00
  GQ112                CONDUIT     2.822     0  04:00      3.79    0.50    0.75
  GQ113                CONDUIT     1.472     0  03:22      5.21    1.11    1.00
  GQ114                CONDUIT     1.008     0  04:00      1.35    0.41    0.90
  GQ115                CONDUIT     0.438     0  04:00      1.42    0.06    0.33
  GQ116                CONDUIT     0.624     0  04:00      1.27    0.09    0.60
  GQ117                CONDUIT     1.562     0  04:00      4.94    0.98    0.65
  GQ118                CONDUIT     0.840     0  04:00      3.40    0.29    0.68
  GQ119                CONDUIT     2.302     0  03:22      4.58    1.00    1.00
  GQ120                CONDUIT     0.000     0  00:00      0.00    0.00    0.50
  GQ121                CONDUIT     1.414     0  04:08      2.81    1.00    1.00
  GQ122                CONDUIT     1.012     0  04:00      2.95    0.18    0.65
  GQ123                CONDUIT     0.856     0  04:00      3.91    0.41    0.72
  GQ124                CONDUIT     0.424     0  04:00      1.53    0.18    0.65
  GQ125                CONDUIT     0.889     0  03:25      3.14    1.00    1.00
  GQ126                CONDUIT     1.049     0  03:28      3.71    1.00    1.00
  GQ127                CONDUIT     0.826     0  05:23      1.64    1.06    1.00
  GQ128                CONDUIT     4.148     0  04:00      3.67    0.90    1.00
  GQ129                CONDUIT     1.313     0  03:50      2.61    1.00    1.00
  GQ130                CONDUIT     1.073     0  03:18      3.79    1.00    1.00
  GQ131                CONDUIT     0.862     0  03:42      3.05    1.00    1.00
  
  
  ***************************
  Flow Classification Summary
  ***************************
  
  -------------------------------------------------------------------------------------
                      Adjusted    ---------- Fraction of Time in Flow Class ---------- 
                       /Actual         Up    Down  Sub   Sup   Up    Down  Norm  Inlet 
  Conduit               Length    Dry  Dry   Dry   Crit  Crit  Crit  Crit  Ltd   Ctrl  
  -------------------------------------------------------------------------------------
  GQ1                     1.00   0.03  0.00  0.00  0.47  0.50  0.00  0.00  0.00  0.00
  GQ2                     1.00   0.03  0.00  0.00  0.46  0.51  0.00  0.00  0.71  0.00
  GQ3                     1.00   0.03  0.00  0.00  0.00  0.97  0.00  0.00  0.18  0.00
  GQ4                     1.00   0.03  0.00  0.00  0.97  0.00  0.00  0.00  0.53  0.00
  GQ5                     1.00   0.03  0.00  0.00  0.97  0.00  0.00  0.00  0.65  0.00
  GQ6                     1.00   0.03  0.00  0.00  0.96  0.01  0.00  0.00  0.90  0.00
  GQ7                     1.00   0.03  0.00  0.00  0.53  0.44  0.00  0.00  0.08  0.00
  GQ8                     1.00   0.03  0.00  0.00  0.97  0.00  0.00  0.00  0.67  0.00
  GQ9                     1.00   0.03  0.00  0.00  0.87  0.11  0.00  0.00  0.70  0.00
  GQ10                    1.00   0.03  0.00  0.00  0.90  0.07  0.00  0.00  0.58  0.00
  GQ11                    1.00   0.03  0.00  0.00  0.38  0.59  0.00  0.00  0.89  0.00
  GQ12                    1.00   0.03  0.00  0.00  0.57  0.41  0.00  0.00  0.90  0.00
  GQ13                    1.00   0.03  0.00  0.00  0.97  0.00  0.00  0.00  0.90  0.00
  GQ14                    1.00   0.03  0.00  0.00  0.55  0.42  0.00  0.00  0.00  0.00
  GQ15                    1.00   0.03  0.00  0.00  0.00  0.97  0.00  0.00  0.02  0.00
  GQ16                    1.00   0.03  0.00  0.00  0.00  0.97  0.00  0.00  0.00  0.00
  GQ17                    1.00   0.03  0.00  0.00  0.46  0.51  0.00  0.00  0.90  0.00
  GQ18                    1.00   0.03  0.00  0.00  0.94  0.03  0.00  0.00  0.07  0.00
  GQ19                    1.00   0.03  0.00  0.00  0.42  0.55  0.00  0.00  0.90  0.00
  GQ20                    1.00   0.03  0.00  0.00  0.97  0.00  0.00  0.00  0.90  0.00
  GQ21                    1.00   0.03  0.00  0.00  0.74  0.23  0.00  0.00  0.90  0.00
  GQ22                    1.00   0.03  0.00  0.00  0.45  0.52  0.00  0.00  0.90  0.00
  GQ23                    1.00   0.03  0.00  0.00  0.46  0.51  0.00  0.00  0.11  0.00
  GQ24                    1.00   0.03  0.00  0.00  0.96  0.02  0.00  0.00  0.68  0.00
  GQ25                    1.00   0.03  0.00  0.00  0.21  0.76  0.00  0.00  0.01  0.00
  GQ26                    1.00   0.03  0.00  0.00  0.41  0.56  0.00  0.00  0.66  0.00
  GQ27                    1.00   0.03  0.00  0.00  0.86  0.11  0.00  0.00  0.67  0.00
  GQ28                    1.00   0.03  0.00  0.00  0.97  0.00  0.00  0.00  0.68  0.00
  GQ29                    1.00   0.03  0.00  0.00  0.97  0.00  0.00  0.00  0.19  0.00
  GQ30                    1.00   0.03  0.00  0.00  0.95  0.02  0.00  0.00  0.17  0.00
  GQ31                    1.00   0.03  0.00  0.00  0.97  0.00  0.00  0.00  0.68  0.00
  GQ32                    1.00   0.03  0.00  0.00  0.44  0.53  0.00  0.00  0.01  0.00
  GQ33                    1.00   0.03  0.00  0.00  0.85  0.12  0.00  0.00  0.65  0.00
  GQ34                    1.00   0.03  0.00  0.00  0.96  0.01  0.00  0.00  0.69  0.00
  GQ35                    1.00   0.03  0.00  0.00  0.51  0.46  0.00  0.00  0.54  0.00
  GQ36                    1.00   0.03  0.00  0.00  0.48  0.49  0.00  0.00  0.63  0.00
  GQ37                    1.00   0.03  0.00  0.00  0.97  0.00  0.00  0.00  0.67  0.00
  GQ38                    1.00   0.03  0.00  0.00  0.97  0.00  0.00  0.00  0.67  0.00
  GQ39                    1.00   0.03  0.00  0.00  0.95  0.03  0.00  0.00  0.68  0.00
  GQ40                    1.00   0.03  0.00  0.00  0.45  0.52  0.00  0.00  0.69  0.00
  GQ41                    1.00   0.03  0.00  0.00  0.97  0.00  0.00  0.00  0.65  0.00
  GQ42                    1.00   0.03  0.00  0.00  0.97  0.00  0.00  0.00  0.61  0.00
  GQ43                    1.00   0.03  0.00  0.00  0.49  0.48  0.00  0.00  0.66  0.00
  GQ44                    1.00   0.03  0.00  0.00  0.97  0.00  0.00  0.00  0.56  0.00
  GQ45                    1.00   0.03  0.00  0.00  0.18  0.79  0.00  0.00  0.70  0.00
  GQ46                    1.00   0.03  0.00  0.00  0.62  0.35  0.00  0.00  0.53  0.00
  GQ47                    1.00   0.03  0.00  0.00  0.87  0.11  0.00  0.00  0.90  0.00
  GQ48                    1.00   0.03  0.00  0.00  0.90  0.07  0.00  0.00  0.90  0.00
  GQ49                    1.00   0.03  0.00  0.00  0.48  0.50  0.00  0.00  0.90  0.00
  GQ50                    1.00   0.03  0.00  0.00  0.97  0.00  0.00  0.00  0.74  0.00
  GQ51                    1.00   0.03  0.00  0.00  0.44  0.53  0.00  0.00  0.57  0.00
  GQ52                    1.00   0.03  0.00  0.00  0.97  0.00  0.00  0.00  0.54  0.00
  GQ53                    1.00   0.03  0.00  0.00  0.97  0.00  0.00  0.00  0.62  0.00
  GQ54                    1.00   0.03  0.00  0.00  0.88  0.09  0.00  0.00  0.72  0.00
  GQ55                    1.00   0.03  0.00  0.00  0.54  0.44  0.00  0.00  0.90  0.00
  GQ56                    1.00   0.03  0.00  0.00  0.49  0.48  0.00  0.00  0.57  0.00
  GQ57                    1.00   0.03  0.00  0.00  0.97  0.00  0.00  0.00  0.71  0.00
  GQ58                    1.00   0.03  0.00  0.00  0.84  0.13  0.00  0.00  0.72  0.00
  GQ59                    1.00   0.03  0.00  0.00  0.97  0.00  0.00  0.00  0.62  0.00
  GQ60                    1.00   0.03  0.00  0.00  0.97  0.00  0.00  0.00  0.21  0.00
  GQ61                    1.00   0.03  0.00  0.00  0.97  0.00  0.00  0.00  0.90  0.00
  GQ62                    1.00   0.03  0.00  0.00  0.97  0.00  0.00  0.00  0.90  0.00
  GQ63                    1.00   0.03  0.00  0.00  0.96  0.01  0.00  0.00  0.90  0.00
  GQ64                    1.00   0.03  0.00  0.00  0.72  0.25  0.00  0.00  0.90  0.00
  GQ65                    1.00   0.03  0.00  0.00  0.97  0.00  0.00  0.00  0.72  0.00
  GQ66                    1.00   0.03  0.00  0.00  0.96  0.01  0.00  0.00  0.90  0.00
  GQ67                    1.00   0.03  0.00  0.00  0.97  0.00  0.00  0.00  0.10  0.00
  GQ68                    1.00   0.03  0.00  0.00  0.97  0.00  0.00  0.00  0.71  0.00
  GQ69                    1.00   0.03  0.00  0.00  0.89  0.08  0.00  0.00  0.71  0.00
  GQ70                    1.00   0.03  0.00  0.00  0.00  0.97  0.00  0.00  0.01  0.00
  GQ71                    1.00   0.03  0.00  0.00  0.00  0.97  0.00  0.00  0.40  0.00
  GQ72                    1.00   0.03  0.00  0.00  0.00  0.97  0.00  0.00  0.23  0.00
  GQ73                    1.00   0.03  0.00  0.00  0.00  0.97  0.00  0.00  0.03  0.00
  GQ74                    1.00   0.03  0.00  0.00  0.92  0.05  0.00  0.00  0.90  0.00
  GQ75                    1.00   0.03  0.00  0.00  0.97  0.00  0.00  0.00  0.90  0.00
  GQ76                    1.00   0.03  0.00  0.00  0.39  0.58  0.00  0.00  0.23  0.00
  GQ77                    1.00   0.03  0.63  0.00  0.34  0.00  0.00  0.00  0.50  0.00
  GQ78                    1.00   0.03  0.00  0.00  0.95  0.02  0.00  0.00  0.65  0.00
  GQ79                    1.00   0.03  0.00  0.00  0.97  0.00  0.00  0.00  0.14  0.00
  GQ80                    1.00   0.03  0.00  0.00  0.97  0.00  0.00  0.00  0.59  0.00
  GQ81                    1.00   0.03  0.00  0.00  0.97  0.00  0.00  0.00  0.00  0.00
  GQ82                    1.00   0.03  0.00  0.00  0.82  0.15  0.00  0.00  0.71  0.00
  GQ83                    1.00   0.03  0.00  0.00  0.34  0.63  0.00  0.00  0.73  0.00
  GQ84                    1.00   0.03  0.00  0.00  0.58  0.39  0.00  0.00  0.69  0.00
  GQ85                    1.00   0.03  0.00  0.00  0.97  0.00  0.00  0.00  0.63  0.00
  GQ86                    1.00   0.03  0.00  0.00  0.55  0.42  0.00  0.00  0.90  0.00
  GQ87                    1.00   0.03  0.00  0.00  0.97  0.00  0.00  0.00  0.86  0.00
  GQ88                    1.00   0.03  0.00  0.00  0.89  0.09  0.00  0.00  0.71  0.00
  GQ89                    1.00   0.03  0.00  0.00  0.97  0.00  0.00  0.00  0.70  0.00
  GQ90                    1.00   0.03  0.00  0.00  0.53  0.44  0.00  0.00  0.72  0.00
  GQ91                    1.00   0.03  0.00  0.00  0.96  0.01  0.00  0.00  0.70  0.00
  GQ92                    1.00   0.03  0.00  0.00  0.94  0.03  0.00  0.00  0.02  0.00
  GQ93                    1.00   0.03  0.00  0.00  0.97  0.00  0.00  0.00  0.68  0.00
  GQ94                    1.00   0.03  0.00  0.00  0.67  0.30  0.00  0.00  0.05  0.00
  GQ95                    1.00   0.03  0.00  0.00  0.97  0.00  0.00  0.00  0.90  0.00
  GQ96                    1.00   0.03  0.00  0.00  0.97  0.00  0.00  0.00  0.53  0.00
  GQ97                    1.00   0.03  0.00  0.00  0.42  0.55  0.00  0.00  0.28  0.00
  GQ98                    1.00   0.03  0.00  0.00  0.97  0.00  0.00  0.00  0.66  0.00
  GQ99                    1.00   0.03  0.00  0.00  0.96  0.01  0.00  0.00  0.90  0.00
  GQ100                   1.00   0.03  0.00  0.00  0.00  0.97  0.00  0.00  0.00  0.00
  GQ101                   1.00   0.03  0.00  0.00  0.54  0.43  0.00  0.00  0.81  0.00
  GQ102                   1.00   0.03  0.00  0.00  0.49  0.48  0.00  0.00  0.82  0.00
  GQ103                   1.00   0.03  0.00  0.00  0.97  0.00  0.00  0.00  0.68  0.00
  GQ104                   1.00   0.03  0.00  0.00  0.85  0.12  0.00  0.00  0.70  0.00
  GQ105                   1.00   0.03  0.00  0.00  0.97  0.00  0.00  0.00  0.11  0.00
  GQ106                   1.00   0.03  0.00  0.00  0.54  0.43  0.00  0.00  0.79  0.00
  GQ107                   1.00   0.03  0.00  0.00  0.88  0.10  0.00  0.00  0.68  0.00
  GQ108                   1.00   0.03  0.00  0.00  0.97  0.00  0.00  0.00  0.20  0.00
  GQ109                   1.00   0.03  0.00  0.00  0.94  0.04  0.00  0.00  0.70  0.00
  GQ110                   1.00   0.03  0.00  0.00  0.96  0.01  0.00  0.00  0.90  0.00
  GQ111                   1.00   0.03  0.00  0.00  0.93  0.04  0.00  0.00  0.70  0.00
  GQ112                   1.00   0.03  0.00  0.00  0.02  0.96  0.00  0.00  0.86  0.00
  GQ113                   1.00   0.03  0.00  0.00  0.37  0.60  0.00  0.00  0.69  0.00
  GQ114                   1.00   0.03  0.00  0.00  0.97  0.00  0.00  0.00  0.17  0.00
  GQ115                   1.00   0.03  0.00  0.00  0.95  0.02  0.00  0.00  0.90  0.00
  GQ116                   1.00   0.03  0.00  0.00  0.97  0.00  0.00  0.00  0.90  0.00
  GQ117                   1.00   0.03  0.00  0.00  0.00  0.97  0.00  0.00  0.00  0.00
  GQ118                   1.00   0.03  0.00  0.00  0.59  0.38  0.00  0.00  0.89  0.00
  GQ119                   1.00   0.03  0.00  0.00  0.90  0.07  0.00  0.00  0.65  0.00
  GQ120                   1.00   0.03  0.10  0.00  0.88  0.00  0.00  0.00  0.00  0.00
  GQ121                   1.00   0.03  0.00  0.00  0.96  0.01  0.00  0.00  0.16  0.00
  GQ122                   1.00   0.03  0.00  0.00  0.48  0.50  0.00  0.00  0.90  0.00
  GQ123                   1.00   0.03  0.00  0.00  0.47  0.50  0.00  0.00  0.90  0.00
  GQ124                   1.00   0.03  0.00  0.00  0.96  0.01  0.00  0.00  0.90  0.00
  GQ125                   1.00   0.03  0.00  0.00  0.96  0.01  0.00  0.00  0.70  0.00
  GQ126                   1.00   0.03  0.00  0.00  0.91  0.06  0.00  0.00  0.71  0.00
  GQ127                   1.00   0.03  0.00  0.00  0.97  0.00  0.00  0.00  0.50  0.00
  GQ128                   1.00   0.03  0.00  0.00  0.51  0.46  0.00  0.00  0.64  0.00
  GQ129                   1.00   0.03  0.00  0.00  0.97  0.00  0.00  0.00  0.57  0.00
  GQ130                   1.00   0.03  0.00  0.00  0.94  0.03  0.00  0.00  0.58  0.00
  GQ131                   1.00   0.03  0.00  0.00  0.95  0.02  0.00  0.00  0.67  0.00
  
  
  *************************
  Conduit Surcharge Summary
  *************************
  
  ----------------------------------------------------------------------------
                                                           Hours        Hours 
                         --------- Hours Full --------   Above Full   Capacity
  Conduit                Both Ends  Upstream  Dnstream   Normal Flow   Limited
  ----------------------------------------------------------------------------
  GQ1                         0.01      1.94      0.01      1.57         0.01
  GQ2                         1.59      1.59      1.75      0.04         0.01
  GQ4                         3.14      3.14      7.26      0.01         0.01
  GQ5                         2.13      2.13      6.96      0.01         0.01
  GQ6                         0.01      0.01      2.13      0.01         0.01
  GQ7                         2.53      2.53      2.83      0.01         0.01
  GQ8                         1.86      1.86      2.53      0.01         0.01
  GQ9                         1.86      1.86      7.80      0.01         0.01
  GQ10                        3.16      3.16      7.94      0.03         0.01
  GQ11                        0.01      0.01      1.73      0.01         0.01
  GQ12                        0.01      0.01      4.22      0.01         0.01
  GQ13                        0.01      0.01      2.94      0.01         0.01
  GQ15                        0.01      1.82      0.01      0.02         0.01
  GQ16                        0.01      1.91      0.01      0.01         0.01
  GQ18                        0.01      0.01      3.44      3.76         0.01
  GQ20                        0.01      0.01      2.02      0.01         0.01
  GQ21                        0.01      0.01      2.02      0.01         0.01
  GQ22                        0.01      0.01      1.86      0.01         0.01
  GQ23                        1.86      1.86      1.96      0.01         0.01
  GQ24                        2.02      2.02      7.59      0.01         0.01
  GQ25                        0.67      1.97      0.67      1.97         0.67
  GQ26                        0.67      0.67      2.07      0.01         0.01
  GQ27                        2.07      2.07      6.92      0.01         0.01
  GQ28                        0.01      0.01      7.06      0.01         0.01
  GQ29                        6.85      6.85      7.06      0.01         0.01
  GQ30                        6.92      6.92      7.35      0.01         0.01
  GQ31                        1.97      1.97      8.01      0.01         0.01
  GQ32                        1.89      2.24      1.89      0.39         0.07
  GQ33                        2.24      2.24      8.01      0.01         0.01
  GQ34                        1.73      1.73      2.24      0.01         0.01
  GQ35                        2.17      2.21      2.24      0.10         0.01
  GQ36                        2.18      2.21      2.21      0.47         0.36
  GQ37                        1.89      1.89      7.72      0.01         0.01
  GQ38                        0.01      0.01      7.72      0.01         0.01
  GQ39                        2.07      2.07      4.22      0.01         0.01
  GQ40                        1.89      1.89      2.07      0.01         0.01
  GQ41                        1.91      1.91      6.98      0.01         0.01
  GQ42                        2.48      2.48      7.21      0.01         0.01
  GQ43                        2.29      2.29      2.48      0.02         0.01
  GQ44                        2.99      2.99      3.44      0.01         0.01
  GQ45                        0.01      0.01      2.46      0.01         0.01
  GQ46                        2.46      2.46      2.99      0.10         0.01
  GQ47                        0.01      0.01      7.04      0.01         0.01
  GQ48                        0.01      0.01      7.39      0.01         0.01
  GQ49                        0.01      0.01      7.39      0.01         0.01
  GQ50                        0.01      0.01      2.06      0.01         0.01
  GQ51                        1.94      2.06      1.94      2.12         1.94
  GQ52                        1.86      1.86      6.85      1.79         1.76
  GQ53                        2.39      2.39      7.38      0.01         0.01
  GQ54                        1.57      1.57      7.41      0.01         0.01
  GQ55                        0.01      0.01      7.41      0.01         0.01
  GQ56                        2.25      2.28      2.53      0.15         0.02
  GQ57                        1.58      1.58      2.28      0.01         0.01
  GQ58                        1.58      1.58      6.92      0.01         0.01
  GQ59                        2.48      2.48      6.92      0.01         0.01
  GQ60                        2.08      2.08      2.49      0.01         0.01
  GQ61                        0.01      0.01      6.81      0.01         0.01
  GQ62                        0.01      0.01      6.82      0.01         0.01
  GQ63                        0.01      0.01      6.82      0.01         0.01
  GQ64                        0.01      0.01      1.57      0.01         0.01
  GQ65                        0.01      0.01      1.90      0.01         0.01
  GQ66                        0.01      0.01      6.84      0.01         0.01
  GQ67                        6.81      6.81      6.83      0.01         0.01
  GQ68                        0.01      0.01      6.87      0.01         0.01
  GQ69                        1.81      1.81      6.95      0.05         0.01
  GQ74                        0.01      0.01      1.75      0.01         0.01
  GQ75                        0.01      0.01      6.88      0.01         0.01
  GQ76                        1.75      1.75      1.84      1.84         1.75
  GQ77                        0.01      0.01      6.55      0.01         0.01
  GQ78                        2.30      2.30      7.61      0.01         0.01
  GQ79                        1.63      1.63      7.61      0.01         0.01
  GQ80                        2.30      2.30      3.87      0.01         0.01
  GQ81                        3.82      3.87      4.22      3.47         0.47
  GQ82                        1.53      1.53      4.22      0.01         0.01
  GQ83                        1.53      1.53      2.00      0.01         0.01
  GQ84                        2.00      2.00      2.43      0.05         0.01
  GQ85                        2.00      2.00      8.04      0.01         0.01
  GQ86                        0.01      0.01      6.98      0.01         0.01
  GQ87                        0.01      0.01      6.98      0.01         0.01
  GQ88                        1.57      1.57      7.22      0.01         0.01
  GQ89                        1.77      1.77      6.89      0.01         0.01
  GQ90                        0.01      0.01      6.87      0.01         0.01
  GQ91                        1.80      1.80      6.92      0.01         0.01
  GQ92                        1.97      2.02      2.06      1.96         1.88
  GQ93                        2.06      2.06      2.26      0.01         0.01
  GQ94                        2.24      2.26      2.29      2.23         2.17
  GQ95                        0.01      0.01      7.20      0.01         0.01
  GQ96                        2.00      2.03      2.03      2.02         1.93
  GQ97                        1.82      1.85      1.82      1.90         1.82
  GQ98                        1.82      1.82      6.96      0.01         0.01
  GQ99                        0.01      0.01      6.83      0.01         0.01
  GQ100                       0.01      1.93      0.01      1.90         0.01
  GQ101                       0.01      0.01      6.92      0.01         0.01
  GQ102                       0.01      0.01      7.08      0.01         0.01
  GQ103                       1.99      1.99      7.45      0.01         0.01
  GQ104                       1.89      1.89      7.45      0.02         0.01
  GQ105                       6.96      6.96      7.08      4.01         0.01
  GQ106                       0.01      0.01      7.06      0.01         0.01
  GQ107                       2.07      2.07      7.06      0.01         0.01
  GQ108                       3.57      3.57      6.96      0.01         0.01
  GQ109                       1.75      1.75      2.07      0.01         0.01
  GQ110                       0.01      0.01      6.88      0.01         0.01
  GQ111                       1.75      1.75      6.93      0.01         0.01
  GQ112                       0.01      0.01      1.67      0.01         0.01
  GQ113                       0.57      1.72      0.57      1.79         0.57
  GQ114                       0.01      0.01      7.25      0.01         0.01
  GQ116                       0.01      0.01      6.95      0.01         0.01
  GQ117                       0.01      1.87      0.01      0.01         0.01
  GQ118                       0.01      0.01      1.87      0.01         0.01
  GQ119                       2.34      2.34      7.59      0.01         0.01
  GQ120                       0.01      0.01      6.97      0.01         0.01
  GQ121                       6.97      6.97      7.59      0.01         0.01
  GQ122                       0.01      0.01      6.97      0.01         0.01
  GQ123                       0.01      0.01      7.03      0.01         0.01
  GQ124                       0.01      0.01      1.87      0.01         0.01
  GQ125                       1.84      1.84      6.92      0.01         0.01
  GQ126                       1.76      1.76      6.92      0.01         0.01
  GQ127                       2.29      2.29      2.34      0.09         0.09
  GQ128                       1.67      1.67      2.16      0.01         0.01
  GQ129                       2.83      2.83      7.59      0.01         0.01
  GQ130                       2.99      2.99      8.26      0.01         0.01
  GQ131                       2.06      2.06      8.03      0.01         0.01
  

  Analysis begun on:  Wed Mar 29 19:12:03 2023
  Analysis ended on:  Wed Mar 29 19:12:21 2023
  Total elapsed time: 00:00:18