
  OWA STORM WATER MANAGEMENT MODEL - VERSION v5.1.14 (OWA 2022-07-31)
  --------------------------------------------------------------

  INP file created by DSDAConvertToSwmmTools 
  version 0.0.1 EcoVista 
  Title/Notes: 
  
  
  *********************************************************
  NOTE: The summary statistics displayed in this report are
  based on results found at every computational time step,  
  not just on results from each reporting time step.
  *********************************************************
  
  ****************
  Analysis Options
  ****************
  Flow Units ............... CMS
  Process Models:
    Rainfall/Runoff ........ YES
    RDII ................... NO
    Snowmelt ............... NO
    Groundwater ............ NO
    Flow Routing ........... YES
    Ponding Allowed ........ NO
    Water Quality .......... NO
  Infiltration Method ...... GREEN_AMPT
  Flow Routing Method ...... DYNWAVE
  Surcharge Method ......... EXTRAN
  Starting Date ............ 07/15/2020 00:00:00
  Ending Date .............. 07/16/2020 01:00:00
  Antecedent Dry Days ...... 0.0
  Report Time Step ......... 00:30:00
  Wet Time Step ............ 00:05:00
  Dry Time Step ............ 01:00:00
  Routing Time Step ........ 30.00 sec
  Variable Time Step ....... YES
  Maximum Trials ........... 8
  Number of Threads ........ 1
  Head Tolerance ........... 0.001500 m
  
  
  **************************        Volume         Depth
  Runoff Quantity Continuity     hectare-m            mm
  **************************     ---------       -------
  Total Precipitation ......       139.878        35.000
  Evaporation Loss .........         9.047         2.264
  Infiltration Loss ........        37.382         9.354
  Surface Runoff ...........        85.853        21.482
  Final Storage ............         7.696         1.926
  Continuity Error (%) .....        -0.071
  
  
  **************************        Volume        Volume
  Flow Routing Continuity        hectare-m      10^6 ltr
  **************************     ---------     ---------
  Dry Weather Inflow .......         0.000         0.000
  Wet Weather Inflow .......        85.763       857.638
  Groundwater Inflow .......         0.000         0.000
  RDII Inflow ..............         0.000         0.000
  External Inflow ..........         0.000         0.000
  External Outflow .........         8.789        87.886
  Flooding Loss ............        75.421       754.216
  Evaporation Loss .........         0.000         0.000
  Exfiltration Loss ........         0.000         0.000
  Initial Stored Volume ....         0.000         0.000
  Final Stored Volume ......         1.368        13.681
  Continuity Error (%) .....         0.216
  
  
  *************************
  Highest Continuity Errors
  *************************
  Node jd51 (6.33%)
  Node jd64 (5.17%)
  Node jd59 (5.11%)
  Node jd31 (4.70%)
  Node jd55 (4.61%)
  
  
  ***************************
  Time-Step Critical Elements
  ***************************
  Link GQ73 (98.32%)
  
  
  ********************************
  Highest Flow Instability Indexes
  ********************************
  Link GQ67 (20)
  Link GQ29 (12)
  Link GQ121 (5)
  Link GQ114 (4)
  Link GQ44 (4)
  
  
  *************************
  Routing Time Step Summary
  *************************
  Minimum Time Step           :     2.19 sec
  Average Time Step           :     9.97 sec
  Maximum Time Step           :    30.00 sec
  Percent in Steady State     :    -0.00
  Average Iterations per Step :     3.33
  Percent Not Converging      :    10.07
  
  
  ***************************
  Subcatchment Runoff Summary
  ***************************
  
  ------------------------------------------------------------------------------------------------------------------------------
                            Total      Total      Total      Total     Imperv       Perv      Total       Total     Peak  Runoff
                           Precip      Runon       Evap      Infil     Runoff     Runoff     Runoff      Runoff   Runoff   Coeff
  Subcatchment                 mm         mm         mm         mm         mm         mm         mm    10^6 ltr      CMS
  ------------------------------------------------------------------------------------------------------------------------------
  1                         35.00       0.00       1.36      19.61      13.04       0.00      13.04        5.16     0.23   0.372
  2                         35.00       0.00       2.43       7.45      22.89       0.00      22.89       20.69     0.89   0.654
  3                         35.00       0.00       2.53       6.39      24.02       0.00      24.02        9.61     0.43   0.686
  4                         35.00       0.00       2.61       5.49      24.91       0.00      24.91        2.09     0.09   0.712
  5                         35.00       0.00       2.30       8.91      22.03       0.00      22.03        2.72     0.12   0.629
  6                         35.00       0.00       2.20      10.03      21.13       0.00      21.13        1.96     0.09   0.604
  7                         35.00       0.00       2.30       8.96      21.75       0.00      21.75        9.48     0.41   0.621
  8                         35.00       0.00       2.92       1.96      27.69       0.00      27.69        3.86     0.17   0.791
  9                         35.00       0.00       3.00       0.98      28.57       0.00      28.57        3.34     0.15   0.816
  10                        35.00       0.00       2.59       5.69      24.63       0.00      24.63        5.55     0.25   0.704
  11                        35.00       0.00       2.79       3.35      26.49       0.00      26.49       13.13     0.58   0.757
  12                        35.00       0.00       2.20      10.06      20.96       0.00      20.96       10.23     0.45   0.599
  13                        35.00       0.00       2.76       3.77      26.16       0.00      26.16       11.83     0.52   0.747
  14                        35.00       0.00       2.75       3.82      26.23       0.00      26.23        4.95     0.22   0.749
  15                        35.00       0.00       2.55       6.15      24.21       0.00      24.21        8.18     0.36   0.692
  16                        35.00       0.00       2.64       5.08      25.07       0.00      25.07        7.41     0.33   0.716
  17                        35.00       0.00       2.47       6.99      23.51       0.00      23.51        9.84     0.44   0.672
  18                        35.00       0.00       2.85       2.75      26.98       0.00      26.98       11.14     0.49   0.771
  19                        35.00       0.00       2.84       2.88      26.85       0.00      26.85        6.04     0.27   0.767
  20                        35.00       0.00       2.82       3.07      26.53       0.00      26.53       14.24     0.62   0.758
  21                        35.00       0.00       3.00       1.03      28.40       0.00      28.40        8.91     0.40   0.812
  22                        35.00       0.00       2.94       1.65      27.85       0.00      27.85        3.42     0.15   0.796
  23                        35.00       0.00       2.71       4.28      25.65       0.00      25.65       14.68     0.64   0.733
  24                        35.00       0.00       2.62       5.34      24.74       0.00      24.74        4.39     0.19   0.707
  25                        35.00       0.00       2.80       3.28      26.64       0.00      26.64        5.39     0.24   0.761
  26                        35.00       0.00       2.38       7.98      22.48       0.00      22.48        7.89     0.34   0.642
  27                        35.00       0.00       2.86       2.62      26.91       0.00      26.91       11.37     0.49   0.769
  28                        35.00       0.00       2.92       1.93      27.57       0.00      27.57       13.03     0.57   0.788
  29                        35.00       0.00       2.61       5.43      24.88       0.00      24.88        5.81     0.26   0.711
  30                        35.00       0.00       2.98       1.18      28.51       0.00      28.51        2.04     0.09   0.815
  31                        35.00       0.00       3.02       0.74      28.69       0.00      28.69        6.32     0.28   0.820
  32                        35.00       0.00       2.95       1.56      27.97       0.00      27.97       12.09     0.54   0.799
  33                        35.00       0.00       2.99       1.14      28.28       0.00      28.28        9.96     0.44   0.808
  34                        35.00       0.00       2.78       3.54      26.34       0.00      26.34        7.72     0.34   0.753
  35                        35.00       0.00       2.86       2.64      27.08       0.00      27.08       11.23     0.50   0.774
  36                        35.00       0.00       2.35       8.34      22.43       0.00      22.43        8.83     0.39   0.641
  37                        35.00       0.00       2.92       1.89      27.70       0.00      27.70        6.15     0.27   0.791
  38                        35.00       0.00       2.74       3.96      26.02       0.00      26.02        9.92     0.44   0.743
  39                        35.00       0.00       2.47       6.96      23.56       0.00      23.56        9.95     0.44   0.673
  40                        35.00       0.00       2.76       3.79      26.16       0.00      26.16        5.98     0.27   0.747
  41                        35.00       0.00       2.82       3.08      26.82       0.00      26.82        5.29     0.24   0.766
  42                        35.00       0.00       2.81       3.11      26.55       0.00      26.55        6.56     0.29   0.758
  43                        35.00       0.00       2.37       8.18      22.41       0.00      22.41       17.71     0.77   0.640
  44                        35.00       0.00       2.53       6.38      23.89       0.00      23.89       11.55     0.51   0.683
  45                        35.00       0.00       2.37       8.12      22.51       0.00      22.51       16.29     0.71   0.643
  46                        35.00       0.00       2.29       9.05      21.89       0.00      21.89       10.94     0.49   0.625
  47                        35.00       0.00       2.41       7.74      22.82       0.00      22.82       26.61     1.17   0.652
  48                        35.00       0.00       2.88       2.42      27.04       0.00      27.04       15.69     0.68   0.773
  49                        35.00       0.00       2.63       5.18      24.78       0.00      24.78       16.77     0.72   0.708
  50                        35.00       0.00       2.92       1.97      27.26       0.00      27.26       10.71     0.45   0.779
  51                        35.00       0.00       2.79       3.40      26.13       0.00      26.13        4.89     0.21   0.747
  52                        35.00       0.00       1.36      19.63      13.06       0.00      13.06       13.40     0.59   0.373
  53                        35.00       0.00       1.96      12.75      18.81       0.00      18.81       20.04     0.89   0.538
  54                        35.00       0.00       2.42       7.54      23.06       0.00      23.06        5.62     0.25   0.659
  55                        35.00       0.00       1.39      19.27      13.36       0.00      13.36       10.54     0.47   0.382
  56                        35.00       0.00       0.52      29.07       5.13       0.00       5.13        4.18     0.18   0.146
  57                        35.00       0.00       2.75       3.90      25.85       0.00      25.85       21.47     0.93   0.738
  58                        35.00       0.00       2.54       6.18      24.18       0.00      24.18        3.98     0.18   0.691
  59                        35.00       0.00       2.48       6.87      23.75       0.00      23.75        3.02     0.14   0.678
  60                        35.00       0.00       0.93      24.46       9.02       0.00       9.02        2.58     0.11   0.258
  61                        35.00       0.00       1.45      18.60      13.82       0.00      13.82        5.21     0.23   0.395
  62                        35.00       0.00       2.01      12.18      19.12       0.00      19.12       22.40     0.98   0.546
  63                        35.00       0.00       2.75       3.86      25.76       0.00      25.76       49.82     2.11   0.736
  64                        35.00       0.00       2.05      11.77      19.60       0.00      19.60        4.21     0.18   0.560
  65                        35.00       0.00       2.79       3.41      26.16       0.00      26.16       17.59     0.75   0.747
  66                        35.00       0.00       2.20      10.12      20.78       0.00      20.78        5.29     0.23   0.594
  67                        35.00       0.00       2.05      11.75      19.66       0.00      19.66        6.36     0.28   0.562
  68                        35.00       0.00       2.46       7.11      23.46       0.00      23.46        2.61     0.12   0.670
  69                        35.00       0.00       1.44      18.63      13.99       0.00      13.99        4.48     0.20   0.400
  70                        35.00       0.00       2.03      11.96      19.35       0.00      19.35       15.92     0.70   0.553
  71                        35.00       0.00       2.51       6.54      23.92       0.00      23.92        2.93     0.13   0.683
  72                        35.00       0.00       2.65       5.00      25.21       0.00      25.21        3.14     0.14   0.720
  73                        35.00       0.00       2.40       7.82      22.94       0.00      22.94        3.81     0.17   0.655
  74                        35.00       0.00       2.29       9.09      21.85       0.00      21.85        4.70     0.21   0.624
  75                        35.00       0.00       2.54       6.20      24.22       0.00      24.22        3.49     0.16   0.692
  76                        35.00       0.00       2.67       4.70      25.50       0.00      25.50        2.47     0.11   0.729
  77                        35.00       0.00       2.85       2.69      27.09       0.00      27.09        2.93     0.13   0.774
  78                        35.00       0.00       2.75       3.83      26.12       0.00      26.12        2.87     0.13   0.746
  79                        35.00       0.00       1.21      21.33      11.65       0.00      11.65       12.35     0.55   0.333
  80                        35.00       0.00       2.27       9.23      21.54       0.00      21.54       13.49     0.59   0.616
  81                        35.00       0.00       2.31       8.83      21.87       0.00      21.87        9.53     0.42   0.625
  82                        35.00       0.00       2.21       9.94      20.96       0.00      20.96       19.21     0.84   0.599
  83                        35.00       0.00       2.77       3.67      26.33       0.00      26.33        3.22     0.14   0.752
  84                        35.00       0.00       2.61       5.44      24.79       0.00      24.79        2.96     0.13   0.708
  85                        35.00       0.00       3.07       0.27      29.19       0.00      29.19        2.71     0.12   0.834
  86                        35.00       0.00       2.83       2.95      26.88       0.00      26.88        3.96     0.18   0.768
  87                        35.00       0.00       3.02       0.75      28.63       0.00      28.63        3.77     0.17   0.818
  88                        35.00       0.00       2.70       4.36      25.76       0.00      25.76        2.47     0.11   0.736
  89                        35.00       0.00       2.84       2.81      27.03       0.00      27.03        5.21     0.23   0.772
  90                        35.00       0.00       3.09       0.01      29.48       0.00      29.48        0.34     0.02   0.842
  91                        35.00       0.00       2.57       5.86      24.22       0.00      24.22        5.28     0.23   0.692
  92                        35.00       0.00       2.85       2.72      27.08       0.00      27.08        3.38     0.15   0.774
  93                        35.00       0.00       2.32       8.69      22.08       0.00      22.08       11.30     0.50   0.631
  94                        35.00       0.00       2.09      11.34      20.09       0.00      20.09        1.41     0.06   0.574
  95                        35.00       0.00       3.09       0.04      29.37       0.00      29.37        0.64     0.03   0.839
  96                        35.00       0.00       2.49       6.78      23.76       0.00      23.76        2.90     0.13   0.679
  97                        35.00       0.00       3.02       0.74      28.74       0.00      28.74        2.85     0.13   0.821
  98                        35.00       0.00       2.51       6.61      23.91       0.00      23.91        2.95     0.13   0.683
  99                        35.00       0.00       1.24      20.94      12.01       0.00      12.01        4.46     0.20   0.343
  100                       35.00       0.00       1.38      19.37      13.34       0.00      13.34        3.42     0.15   0.381
  101                       35.00       0.00       1.41      18.99      13.62       0.00      13.62        6.67     0.29   0.389
  102                       35.00       0.00       2.30       8.90      21.94       0.00      21.94        5.35     0.24   0.627
  103                       35.00       0.00       0.77      26.28       7.51       0.00       7.51        2.73     0.12   0.215
  104                       35.00       0.00       0.52      29.10       5.07       0.00       5.07        4.91     0.22   0.145
  105                       35.00       0.00       2.54       6.22      24.24       0.00      24.24        3.17     0.14   0.693
  106                       35.00       0.00       1.38      19.41      13.27       0.00      13.27        3.24     0.14   0.379
  
  
  ******************
  Node Depth Summary
  ******************
  
  ---------------------------------------------------------------------------------
                                 Average  Maximum  Maximum  Time of Max    Reported
                                   Depth    Depth      HGL   Occurrence   Max Depth
  Node                 Type       Meters   Meters   Meters  days hr:min      Meters
  ---------------------------------------------------------------------------------
  jd1                  JUNCTION     0.07     0.13   273.13     0  23:00        0.13
  jd2                  JUNCTION     0.18     0.34   267.34     0  23:00        0.34
  jd3                  JUNCTION     2.87     3.00   266.00     0  02:21        3.00
  jd4                  JUNCTION     0.35     3.00   270.00     0  22:41        3.00
  jd5                  JUNCTION     0.05     0.09   274.09     0  23:00        0.09
  jd6                  JUNCTION     0.06     0.12   275.12     0  23:00        0.12
  jd7                  JUNCTION     0.22     0.40   264.50     0  23:00        0.40
  jd8                  JUNCTION     1.06     3.00   267.00     0  22:22        2.99
  jd9                  JUNCTION     0.53     3.00   268.00     0  22:22        2.87
  jd10                 JUNCTION     2.88     3.00   273.00     0  02:12        3.00
  jd11                 JUNCTION     0.05     0.10   282.10     0  23:00        0.10
  jd12                 JUNCTION     2.89     3.00   272.00     0  02:04        3.00
  jd13                 JUNCTION     0.07     0.12   289.12     0  23:00        0.12
  jd14                 JUNCTION     0.14     0.27   280.27     0  23:00        0.27
  jd15                 JUNCTION     0.15     0.28   278.28     0  23:01        0.28
  jd16                 JUNCTION     0.16     0.31   274.31     0  23:00        0.31
  jd17                 JUNCTION     1.57     3.00   278.80     0  02:57        3.00
  jd18                 JUNCTION     0.14     0.29   279.29     0  23:00        0.29
  jd19                 JUNCTION     0.33     3.00   270.00     0  22:40        1.99
  jd20                 JUNCTION     0.14     0.22   273.22     0  23:00        0.22
  jd21                 JUNCTION     2.86     3.00   273.00     0  02:49        3.00
  jd22                 JUNCTION     1.10     2.07   274.07     0  23:00        2.07
  jd23                 JUNCTION     0.12     0.24   278.24     0  23:00        0.24
  jd24                 JUNCTION     0.08     0.15   285.15     0  23:00        0.15
  jd25                 JUNCTION     0.13     0.24   279.24     0  23:00        0.24
  jd26                 JUNCTION     0.14     0.28   285.28     0  23:00        0.28
  jd27                 JUNCTION     0.11     0.22   291.22     0  23:00        0.22
  jd28                 JUNCTION     2.91     3.00   290.00     0  01:54        3.00
  jd29                 JUNCTION     0.06     0.10   299.10     0  23:00        0.10
  jd30                 JUNCTION     0.07     0.13   290.13     0  23:00        0.13
  jd31                 JUNCTION     0.95     1.96   273.96     0  02:49        1.07
  jd32                 JUNCTION     2.90     3.00   275.00     0  02:00        3.00
  jd33                 JUNCTION     0.10     0.20   289.20     0  23:00        0.20
  jd34                 JUNCTION     0.12     0.23   294.23     0  23:00        0.23
  jd35                 JUNCTION     2.92     3.00   292.00     0  01:43        3.00
  jd36                 JUNCTION     0.17     0.33   299.33     0  23:00        0.33
  jd37                 JUNCTION     0.16     0.32   303.32     0  23:00        0.32
  jd38                 JUNCTION     0.20     0.38   297.38     0  23:00        0.38
  jd39                 JUNCTION     2.87     3.00   297.00     0  02:20        3.00
  jd40                 JUNCTION     0.26     0.62   299.62     0  23:03        0.61
  jd41                 JUNCTION     2.81     3.00   296.00     0  03:10        3.00
  jd42                 JUNCTION     0.11     0.20   305.20     0  23:00        0.20
  jd43                 JUNCTION     0.26     0.56   297.56     0  23:00        0.56
  jd44                 JUNCTION     0.28     0.62   283.62     0  23:02        0.62
  jd45                 JUNCTION     2.89     3.00   282.00     0  02:08        3.00
  jd46                 JUNCTION     0.15     0.28   275.28     0  23:02        0.28
  jd47                 JUNCTION     0.09     0.17   315.17     0  23:00        0.17
  jd48                 JUNCTION     0.06     0.12   325.12     0  23:00        0.12
  jd49                 JUNCTION     0.14     0.27   289.27     0  23:00        0.26
  jd50                 JUNCTION     2.91     3.00   278.00     0  01:51        3.00
  jd51                 JUNCTION     2.78     3.00   313.00     0  03:22        3.00
  jd52                 JUNCTION     0.21     0.42   323.42     0  23:01        0.42
  jd53                 JUNCTION     0.21     0.43   322.43     0  23:01        0.43
  jd54                 JUNCTION     0.16     0.30   326.30     0  23:00        0.30
  jd55                 JUNCTION     1.18     1.53   323.53     0  23:00        1.53
  jd56                 JUNCTION     0.10     0.19   327.19     0  23:00        0.19
  jd59                 JUNCTION     2.75     3.00   320.80     0  03:34        3.00
  jd60                 JUNCTION     2.89     3.00   319.00     0  02:02        3.00
  jd61                 JUNCTION     0.08     0.15   329.15     0  23:00        0.15
  jd62                 JUNCTION     0.04     0.07   335.07     0  23:00        0.07
  jd63                 JUNCTION     0.04     0.08   324.08     0  23:00        0.08
  jd64                 JUNCTION     2.56     3.00   321.00     0  03:34        2.81
  jd65                 JUNCTION     0.76     3.00   307.00     0  10:21        3.00
  jd66                 JUNCTION     2.87     3.00   304.00     0  02:17        3.00
  jd69                 JUNCTION     0.13     0.24   333.24     0  23:00        0.24
  jd79                 JUNCTION     2.71     3.00   274.00     0  01:57        3.00
  jd80                 JUNCTION     1.66     3.00   279.00     0  02:57        3.00
  jd81                 JUNCTION     0.08     0.15   288.15     0  23:00        0.15
  jd83                 JUNCTION     2.93     3.00   323.00     0  01:40        3.00
  jd84                 JUNCTION     0.12     0.25   323.25     0  23:00        0.25
  jd85                 JUNCTION     2.88     3.00   324.00     0  02:14        3.00
  jd87                 JUNCTION     2.89     3.00   322.00     0  02:08        3.00
  jd89                 JUNCTION     0.09     0.17   324.17     0  23:00        0.17
  jd90                 JUNCTION     0.08     0.15   328.15     0  23:00        0.15
  jd92                 JUNCTION     0.08     0.15   326.15     0  23:00        0.15
  jd93                 JUNCTION     0.22     0.45   324.45     0  23:00        0.45
  jd94                 JUNCTION     0.14     0.26   326.46     0  23:01        0.26
  jd95                 JUNCTION     0.18     0.35   327.35     0  23:00        0.35
  jd96                 JUNCTION     2.90     3.00   308.00     0  02:04        3.00
  jd97                 JUNCTION     0.18     0.35   327.55     0  23:00        0.35
  jd98                 JUNCTION     0.10     0.20   329.20     0  23:00        0.20
  jd99                 JUNCTION     2.87     3.00   327.00     0  02:18        3.00
  jd101                JUNCTION     0.06     0.12   321.12     0  23:00        0.12
  jd102                JUNCTION     0.12     0.24   324.24     0  23:00        0.24
  jd103                JUNCTION     0.06     0.12   318.12     0  23:00        0.12
  jd106                JUNCTION     2.82     3.00   287.00     0  02:52        3.00
  jd107                JUNCTION     0.12     0.22   332.22     0  23:00        0.22
  jd108                JUNCTION     1.08     1.21   327.21     0  23:00        1.21
  jd109                JUNCTION     0.09     0.17   343.17     0  23:00        0.17
  jd110                JUNCTION     2.88     3.00   327.00     0  02:16        3.00
  jd111                JUNCTION     0.04     0.08   344.08     0  23:00        0.08
  jd112                JUNCTION     0.05     0.10   334.10     0  23:00        0.10
  jd113                JUNCTION     0.06     0.11   348.11     0  23:00        0.11
  jd114                JUNCTION     2.89     3.00   317.00     0  02:06        3.00
  jd117                JUNCTION     0.99     1.77   317.77     0  02:19        1.19
  jd118                JUNCTION     0.05     0.10   330.10     0  23:00        0.10
  jd120                JUNCTION     0.09     0.17   327.17     0  23:00        0.17
  jd121                JUNCTION     0.09     0.17   320.17     0  23:00        0.17
  jd122                JUNCTION     2.87     3.00   276.00     0  02:23        3.00
  jd123                JUNCTION     2.85     3.00   276.20     0  02:23        3.00
  jd124                JUNCTION     2.93     3.00   271.00     0  01:32        3.00
  jd125                JUNCTION     0.31     3.00   278.00     0  22:40        2.18
  jd126                JUNCTION     2.92     3.00   275.00     0  01:41        3.00
  jd135                JUNCTION     0.08     0.15   289.15     0  23:00        0.15
  jd136                JUNCTION     0.14     0.28   341.28     0  23:00        0.28
  psk1                 OUTFALL      0.05     0.10   279.10     0  23:00        0.10
  psk2                 OUTFALL      0.07     0.13   270.13     0  23:00        0.13
  psk3                 OUTFALL      0.16     0.31   271.31     0  23:00        0.31
  psk4                 OUTFALL      0.00     0.00   280.00     0  00:00        0.00
  psk5                 OUTFALL      0.07     0.13   263.13     0  23:00        0.13
  psk6                 OUTFALL      0.05     0.09   259.09     0  23:00        0.09
  psk7                 OUTFALL      0.22     0.40   262.40     0  23:00        0.40
  psk8                 OUTFALL      0.00     0.00   317.00     0  00:00        0.00
  
  
  *******************
  Node Inflow Summary
  *******************
  
  -------------------------------------------------------------------------------------------------
                                  Maximum  Maximum                  Lateral       Total        Flow
                                  Lateral    Total  Time of Max      Inflow      Inflow     Balance
                                   Inflow   Inflow   Occurrence      Volume      Volume       Error
  Node                 Type           CMS      CMS  days hr:min    10^6 ltr    10^6 ltr     Percent
  -------------------------------------------------------------------------------------------------
  jd1                  JUNCTION     0.227    0.368     0  23:00        5.15        8.52       0.185
  jd2                  JUNCTION     0.340    0.469     0  23:00        7.88        10.9       0.330
  jd3                  JUNCTION     0.413    1.387     0  23:00        9.47          33       1.228
  jd4                  JUNCTION     0.493    0.554     0  23:00        11.4        12.7       0.363
  jd5                  JUNCTION     0.149    0.260     0  23:00        3.34        5.94       0.068
  jd6                  JUNCTION     0.171    0.171     0  23:00        3.85        3.85       0.105
  jd7                  JUNCTION     0.088    1.428     0  23:00        1.96        37.5       0.151
  jd8                  JUNCTION     0.122    1.011     0  23:00        2.72        28.3       0.738
  jd9                  JUNCTION     0.094    0.889     0  23:00        2.09        25.7       0.195
  jd10                 JUNCTION     0.247    0.315     0  23:00        5.54        7.07       1.446
  jd11                 JUNCTION     0.364    0.364     0  23:00        8.18        8.18       0.140
  jd12                 JUNCTION     0.272    0.590     0  23:00        6.14        13.3       1.049
  jd13                 JUNCTION     0.494    0.494     0  23:00        11.1        11.1       0.107
  jd14                 JUNCTION     0.572    0.644     0  23:00          13        14.6       0.220
  jd15                 JUNCTION     0.241    0.517     0  23:00        5.39        11.7       0.614
  jd16                 JUNCTION     0.259    0.979     0  23:00         5.8          22       0.237
  jd17                 JUNCTION     0.536    1.330     0  23:00        12.1        39.7       1.880
  jd18                 JUNCTION     0.428    0.620     0  23:00         9.6        13.9       0.309
  jd19                 JUNCTION     0.398    0.795     0  23:00        8.92        23.6       0.182
  jd20                 JUNCTION     0.328    0.549     0  23:00         7.4        20.3       0.251
  jd21                 JUNCTION     0.151    1.294     0  23:00        3.42        31.7       1.079
  jd22                 JUNCTION     0.267    0.603     0  23:00        6.03        13.7       0.607
  jd23                 JUNCTION     0.265    0.734     0  23:00        5.97        16.5       0.182
  jd24                 JUNCTION     0.437    0.437     0  23:00        9.83        9.83       0.136
  jd25                 JUNCTION     0.342    0.495     0  23:00        7.71        11.1       0.241
  jd26                 JUNCTION     0.498    0.825     0  23:00        11.2        18.7       0.224
  jd27                 JUNCTION     0.505    0.834     0  23:00        11.5        19.2       0.221
  jd28                 JUNCTION     0.678    0.954     0  23:00        15.7        22.1       0.606
  jd29                 JUNCTION     0.282    0.282     0  23:00        6.32        6.32       0.077
  jd30                 JUNCTION     0.286    0.780     0  23:00        6.55        17.9       0.141
  jd31                 JUNCTION     0.192    0.390     0  23:00        4.38        9.53       4.935
  jd32                 JUNCTION     0.395    1.907     0  23:00         8.9        38.1       0.656
  jd33                 JUNCTION     0.391    0.651     0  23:00        8.82        14.7       0.119
  jd34                 JUNCTION     0.486    0.486     0  23:00        10.9        10.9       0.096
  jd35                 JUNCTION     0.443    1.514     0  23:00        9.94        34.8       0.378
  jd36                 JUNCTION     0.724    1.187     0  23:00        16.8        27.6       0.279
  jd37                 JUNCTION     0.768    0.768     0  23:00        17.7        17.7       0.155
  jd38                 JUNCTION     0.713    1.171     0  23:00        16.3        26.9       0.359
  jd39                 JUNCTION     0.499    2.180     0  23:00        11.3        51.1       1.007
  jd40                 JUNCTION     0.837    2.060     0  23:00        19.2        46.4       0.374
  jd41                 JUNCTION     0.592    2.494     0  23:00        13.5        56.7       3.900
  jd42                 JUNCTION     0.752    0.828     0  23:00        17.6        19.3       0.282
  jd43                 JUNCTION     0.887    1.545     0  23:00          20        34.3       0.364
  jd44                 JUNCTION     1.166    2.944     0  23:00        26.6        66.5       0.364
  jd45                 JUNCTION     0.451    1.804     0  23:00        10.7        42.3       0.773
  jd46                 JUNCTION     0.207    0.207     0  23:00        4.88        4.88       0.922
  jd47                 JUNCTION     0.703    0.703     0  23:00        15.9        15.9       0.131
  jd48                 JUNCTION     0.198    0.198     0  23:00        4.47        4.47       0.104
  jd49                 JUNCTION     0.926    0.926     0  23:00        21.4        21.4       0.215
  jd50                 JUNCTION     0.977    2.742     0  23:00        22.4        83.9       0.518
  jd51                 JUNCTION     0.210    0.958     0  23:00         4.7        21.6       6.763
  jd52                 JUNCTION     0.416    1.663     0  23:00        9.52          37       0.308
  jd53                 JUNCTION     0.228    1.287     0  23:00        5.28          29       0.192
  jd54                 JUNCTION     0.128    0.634     0  23:00        2.85        14.2       0.231
  jd55                 JUNCTION     0.233    0.750     0  23:00         5.2        16.8       4.837
  jd56                 JUNCTION     0.142    0.415     0  23:00        3.17        9.26       0.187
  jd59                 JUNCTION     0.140    0.693     0  23:00        3.14        15.2       5.382
  jd60                 JUNCTION     0.250    0.531     0  23:00        5.62          12       1.081
  jd61                 JUNCTION     0.279    0.315     0  23:00        6.35        7.15       0.140
  jd62                 JUNCTION     0.114    0.114     0  23:00        2.58        2.58       0.039
  jd63                 JUNCTION     0.156    0.156     0  23:00        3.49        3.49       0.087
  jd64                 JUNCTION     0.131    0.323     0  23:00        2.93        7.24       5.452
  jd65                 JUNCTION     2.111    2.111     0  23:00        49.8        49.8       0.153
  jd66                 JUNCTION     0.292    0.853     0  23:00        6.67        19.3       1.662
  jd69                 JUNCTION     0.546    0.561     0  23:00        12.3        12.7       0.172
  jd79                 JUNCTION     0.525    0.957     0  23:00        11.8        20.4       0.866
  jd80                 JUNCTION     0.581    0.764     0  23:00        13.1        18.4       0.788
  jd81                 JUNCTION     0.439    0.439     0  23:00        9.95        9.95       0.046
  jd83                 JUNCTION     0.468    0.619     0  23:00        10.5        14.6       0.585
  jd84                 JUNCTION     0.595    0.595     0  23:00        13.4        13.4       0.115
  jd85                 JUNCTION     0.135    0.222     0  23:00        3.02        4.97       1.727
  jd87                 JUNCTION     0.110    0.265     0  23:00        2.47        5.97       1.252
  jd89                 JUNCTION     0.127    0.127     0  23:00        2.87        2.87       0.200
  jd90                 JUNCTION     0.131    0.131     0  23:00        2.93        2.93       0.130
  jd92                 JUNCTION     0.110    0.110     0  23:00        2.46        2.46       0.095
  jd93                 JUNCTION     0.231    0.504     0  23:00        5.29        11.4       0.261
  jd94                 JUNCTION     0.015    0.275     0  23:00       0.338        6.16       0.298
  jd95                 JUNCTION     0.029    0.260     0  23:00       0.641        5.84       0.252
  jd96                 JUNCTION     0.217    0.288     0  23:00        4.91        6.51       1.491
  jd97                 JUNCTION     0.232    0.232     0  23:00         5.2         5.2       0.060
  jd98                 JUNCTION     0.130    0.130     0  23:00         2.9         2.9       0.107
  jd99                 JUNCTION     0.063    0.220     0  23:00        1.41           5       1.138
  jd101                JUNCTION     0.170    0.337     0  23:00        3.81        7.56       0.099
  jd102                JUNCTION     0.167    0.167     0  23:00        3.76        3.76       0.178
  jd103                JUNCTION     0.116    0.116     0  23:00         2.6         2.6       0.050
  jd106                JUNCTION     0.092    0.518     0  23:00        2.04        11.7       3.426
  jd107                JUNCTION     0.132    0.431     0  23:00        2.94        9.68       0.219
  jd108                JUNCTION     0.143    0.143     0  23:00        3.24        3.26       2.051
  jd109                JUNCTION     0.238    0.238     0  23:00        5.35        5.35       0.048
  jd110                JUNCTION     0.183    0.272     0  23:00        4.17        6.19       2.490
  jd111                JUNCTION     0.151    0.151     0  23:00        3.42        3.42       0.083
  jd112                JUNCTION     0.177    0.493     0  23:00        3.96        11.1       0.082
  jd113                JUNCTION     0.120    0.120     0  23:00        2.73        2.73       0.003
  jd114                JUNCTION     0.144    1.860     0  23:00        3.21        41.9       0.760
  jd117                JUNCTION     0.131    0.435     0  23:00        2.96         9.9       1.620
  jd118                JUNCTION     0.122    0.122     0  23:00        2.71        2.71       0.021
  jd120                JUNCTION     0.151    0.151     0  23:00        3.38        3.38       0.090
  jd121                JUNCTION     0.185    0.185     0  23:00         4.2         4.2       0.123
  jd122                JUNCTION     0.441    1.825     0  23:00        9.91        57.7       0.981
  jd123                JUNCTION     0.454    1.898     0  23:00        10.2        61.8       1.149
  jd124                JUNCTION     0.644    1.652     0  23:00        14.7          43       0.135
  jd125                JUNCTION     0.616    2.123     0  23:00        14.2        48.9       0.143
  jd126                JUNCTION     0.887    1.250     0  23:00        20.7          29       0.347
  jd135                JUNCTION     0.236    0.236     0  23:00        5.29        5.29       0.067
  jd136                JUNCTION     0.196    0.317     0  23:00        4.45        7.18       0.203
  psk1                 OUTFALL      0.000    0.234     0  23:00           0        5.25       0.000
  psk2                 OUTFALL      0.000    0.573     0  23:00           0        13.1       0.000
  psk3                 OUTFALL      0.000    0.975     0  23:00           0          22       0.000
  psk4                 OUTFALL      0.000    0.000     0  00:00           0           0       0.000 ltr
  psk5                 OUTFALL      0.000    0.238     0  23:00           0        5.52       0.000
  psk6                 OUTFALL      0.000    0.199     0  23:00           0        4.55       0.000
  psk7                 OUTFALL      0.000    1.427     0  23:00           0        37.4       0.000
  psk8                 OUTFALL      0.000    0.000     0  00:00           0           0       0.000 ltr
  
  
  **********************
  Node Surcharge Summary
  **********************
  
  Surcharging occurs when water rises above the top of the highest conduit.
  ---------------------------------------------------------------------
                                               Max. Height   Min. Depth
                                   Hours       Above Crown    Below Rim
  Node                 Type      Surcharged         Meters       Meters
  ---------------------------------------------------------------------
  jd3                  JUNCTION       22.65          2.200        0.000
  jd4                  JUNCTION        1.04          2.200        0.000
  jd8                  JUNCTION       11.50          2.200        0.000
  jd9                  JUNCTION        2.85          2.200        0.000
  jd10                 JUNCTION       22.79          2.400        0.000
  jd12                 JUNCTION       22.94          2.400        0.000
  jd17                 JUNCTION       14.29          2.200        0.000
  jd19                 JUNCTION        0.47          2.200        0.000
  jd21                 JUNCTION       22.72          2.200        0.000
  jd22                 JUNCTION       22.29          1.474        0.926
  jd28                 JUNCTION       23.10          2.400        0.000
  jd31                 JUNCTION       22.18          1.162        1.038
  jd32                 JUNCTION       23.01          2.200        0.000
  jd35                 JUNCTION       23.28          2.400        0.000
  jd39                 JUNCTION       22.66          2.000        0.000
  jd41                 JUNCTION       21.84          1.000        0.000
  jd45                 JUNCTION       22.87          2.000        0.000
  jd50                 JUNCTION       23.15          2.200        0.000
  jd51                 JUNCTION       21.64          1.350        0.000
  jd55                 JUNCTION        0.33          0.027        1.473
  jd59                 JUNCTION       21.44          1.500        0.000
  jd60                 JUNCTION       22.97          2.400        0.000
  jd64                 JUNCTION       21.49          1.800        0.000
  jd65                 JUNCTION        3.37          2.400        0.000
  jd66                 JUNCTION       22.71          2.200        0.000
  jd79                 JUNCTION       23.05          2.400        0.000
  jd80                 JUNCTION       15.63          2.400        0.000
  jd83                 JUNCTION       23.33          2.400        0.000
  jd85                 JUNCTION       22.77          2.400        0.000
  jd87                 JUNCTION       22.87          2.400        0.000
  jd96                 JUNCTION       22.94          2.200        0.000
  jd99                 JUNCTION       22.70          2.400        0.000
  jd106                JUNCTION       22.12          2.000        0.000
  jd108                JUNCTION       22.90          0.213        1.787
  jd110                JUNCTION       22.73          2.000        0.000
  jd114                JUNCTION       22.90          2.000        0.000
  jd117                JUNCTION       22.68          0.973        1.227
  jd122                JUNCTION       22.69          2.200        0.000
  jd123                JUNCTION       22.62          2.200        0.000
  jd124                JUNCTION       23.46          2.400        0.000
  jd125                JUNCTION        0.70          2.200        0.000
  jd126                JUNCTION       23.31          2.400        0.000
  
  
  *********************
  Node Flooding Summary
  *********************
  
  Flooding refers to all water that overflows a node, whether it ponds or not.
  --------------------------------------------------------------------------
                                                             Total   Maximum
                                 Maximum   Time of Max       Flood    Ponded
                        Hours       Rate    Occurrence      Volume     Depth
  Node                 Flooded       CMS   days hr:min    10^6 ltr    Meters
  --------------------------------------------------------------------------
  jd3                    22.65     1.387      0  23:00      32.563     0.000
  jd4                     0.37     0.164      0  22:41       0.037     0.000
  jd8                     0.02     0.048      0  22:22       0.002     0.000
  jd9                     0.01     0.155      0  22:22       0.002     0.000
  jd10                   22.79     0.315      0  23:00       6.966     0.000
  jd12                   22.94     0.590      0  23:00      13.123     0.000
  jd17                    2.23     0.528      0  22:10       1.441     0.000
  jd19                    0.01     0.068      0  22:40       0.000     0.000
  jd21                   22.17     1.294      0  23:00      31.049     0.000
  jd28                   23.10     0.954      0  23:00      21.963     0.000
  jd32                   23.00     1.907      0  23:00      37.888     0.000
  jd35                   23.28     1.514      0  23:00      34.704     0.000
  jd39                   22.66     2.180      0  23:00      50.621     0.000
  jd41                   21.84     2.494      0  23:00      54.617     0.000
  jd45                   22.86     1.804      0  23:00      42.009     0.000
  jd50                   23.14     2.742      0  23:00      83.472     0.000
  jd51                   21.63     0.958      0  23:00      20.244     0.000
  jd59                   21.43     0.693      0  23:00      14.393     0.000
  jd60                   22.96     0.531      0  23:00      11.857     0.000
  jd64                    0.01     0.100      0  03:34       0.001     0.000
  jd65                    2.89     1.017      0  23:00       3.804     0.000
  jd66                   22.71     0.853      0  23:00      19.016     0.000
  jd79                   10.83     0.737      0  23:00       7.270     0.000
  jd80                    6.33     0.606      0  23:00       5.072     0.000
  jd83                   23.33     0.619      0  23:00      14.560     0.000
  jd85                   22.76     0.222      0  23:00       4.889     0.000
  jd87                   22.87     0.265      0  23:00       5.899     0.000
  jd96                   22.94     0.288      0  23:00       6.413     0.000
  jd99                   22.69     0.220      0  23:00       4.948     0.000
  jd106                  22.12     0.518      0  23:00      11.274     0.000
  jd110                  22.73     0.272      0  23:00       6.045     0.000
  jd114                  22.68     1.860      0  23:00      41.484     0.000
  jd122                  22.62     1.825      0  23:00      57.036     0.000
  jd123                  17.89     1.583      0  23:00      37.801     0.000
  jd124                  23.46     1.652      0  23:00      42.918     0.000
  jd125                   0.01     0.239      0  22:40       0.002     0.000
  jd126                  23.31     1.250      0  23:00      28.869     0.000
  
  
  ***********************
  Outfall Loading Summary
  ***********************
  
  -----------------------------------------------------------
                         Flow       Avg       Max       Total
                         Freq      Flow      Flow      Volume
  Outfall Node           Pcnt       CMS       CMS    10^6 ltr
  -----------------------------------------------------------
  psk1                  98.63     0.073     0.234       5.245
  psk2                  98.62     0.182     0.573      13.142
  psk3                  98.65     0.305     0.975      21.979
  psk4                   0.00     0.000     0.000       0.000
  psk5                  98.64     0.076     0.238       5.522
  psk6                  98.62     0.063     0.199       4.551
  psk7                  98.65     0.512     1.427      37.447
  psk8                   0.00     0.000     0.000       0.000
  -----------------------------------------------------------
  System                73.97     1.212     0.000      87.886
  
  
  ********************
  Link Flow Summary
  ********************
  
  -----------------------------------------------------------------------------
                                 Maximum  Time of Max   Maximum    Max/    Max/
                                  |Flow|   Occurrence   |Veloc|    Full    Full
  Link                 Type          CMS  days hr:min     m/sec    Flow   Depth
  -----------------------------------------------------------------------------
  GQ1                  CONDUIT     0.142     0  23:01      1.64    0.37    0.34
  GQ2                  CONDUIT     0.368     0  23:01      1.88    0.17    0.30
  GQ3                  CONDUIT     0.234     0  23:00      4.60    0.01    0.07
  GQ4                  CONDUIT     0.510     0  22:56      1.80    1.00    1.00
  GQ5                  CONDUIT     0.464     0  23:00      1.21    0.38    0.72
  GQ6                  CONDUIT     0.129     0  23:00      1.03    0.06    0.30
  GQ7                  CONDUIT     1.524     0  23:03      3.54    0.91    0.89
  GQ8                  CONDUIT     0.248     0  23:00      0.88    0.24    0.55
  GQ9                  CONDUIT     0.673     0  23:00      1.89    0.24    0.67
  GQ10                 CONDUIT     1.136     0  10:19      4.10    1.04    1.00
  GQ11                 CONDUIT     0.077     0  23:00      1.37    0.08    0.27
  GQ12                 CONDUIT     0.087     0  23:00      0.49    0.09    0.60
  GQ13                 CONDUIT     0.061     0  23:00      0.44    0.03    0.56
  GQ14                 CONDUIT     0.029     0  23:00      0.75    0.04    0.13
  GQ15                 CONDUIT     0.082     0  23:00      3.53    0.33    0.36
  GQ16                 CONDUIT     0.495     0  23:01      3.10    0.24    0.26
  GQ17                 CONDUIT     0.142     0  23:00      1.04    0.04    0.32
  GQ18                 CONDUIT     1.011     0  23:00      2.49    4.56    0.75
  GQ19                 CONDUIT     0.188     0  23:00      1.25    0.02    0.25
  GQ20                 CONDUIT     0.041     0  23:00      0.40    0.02    0.20
  GQ21                 CONDUIT     0.151     0  23:00      1.21    0.05    0.22
  GQ22                 CONDUIT     0.153     0  23:00      1.41    0.05    0.20
  GQ23                 CONDUIT     0.266     0  23:00      1.81    0.13    0.24
  GQ24                 CONDUIT     0.396     0  23:00      1.14    0.20    0.65
  GQ25                 CONDUIT     0.260     0  23:00      2.89    0.29    0.35
  GQ26                 CONDUIT     0.203     0  23:00      2.16    0.24    0.37
  GQ27                 CONDUIT     0.336     0  23:00      1.59    0.34    0.70
  GQ28                 CONDUIT     0.150     0  23:00      0.45    0.16    0.64
  GQ29                 CONDUIT     0.390     0  23:00      0.78    0.18    1.00
  GQ30                 CONDUIT     0.603     0  23:00      2.13    0.73    1.00
  GQ31                 CONDUIT     0.226     0  23:00      1.09    0.30    0.69
  GQ32                 CONDUIT     0.329     0  23:01      2.60    0.53    0.46
  GQ33                 CONDUIT     0.846     0  23:00      3.59    0.59    0.78
  GQ34                 CONDUIT     0.157     0  23:00      1.29    0.25    0.45
  GQ35                 CONDUIT     0.306     0  23:00      1.94    0.57    0.55
  GQ36                 CONDUIT     0.458     0  23:00      2.65    0.57    0.59
  GQ37                 CONDUIT     0.201     0  23:00      0.98    0.29    0.68
  GQ38                 CONDUIT     0.075     0  23:00      0.42    0.11    0.61
  GQ39                 CONDUIT     0.338     0  23:00      1.53    0.43    0.73
  GQ40                 CONDUIT     0.232     0  23:00      2.10    0.29    0.41
  GQ41                 CONDUIT     0.666     0  23:00      1.15    0.31    0.69
  GQ42                 CONDUIT     1.024     0  23:03      2.18    0.75    0.88
  GQ43                 CONDUIT     1.225     0  23:01      3.78    0.55    0.65
  GQ44                 CONDUIT     0.889     0  23:00      1.77    0.94    1.00
  GQ45                 CONDUIT     0.397     0  23:00      1.80    0.16    0.64
  GQ46                 CONDUIT     0.795     0  23:00      1.88    0.74    1.00
  GQ47                 CONDUIT     0.067     0  23:00      0.39    0.06    0.59
  GQ48                 CONDUIT     0.067     0  23:00      0.39    0.06    0.59
  GQ49                 CONDUIT     0.251     0  23:00      1.41    0.09    0.60
  GQ50                 CONDUIT     0.072     0  23:00      0.89    0.09    0.33
  GQ51                 CONDUIT     0.277     0  23:00      2.16    0.42    0.46
  GQ52                 CONDUIT     0.199     0  23:02      0.68    0.27    0.68
  GQ53                 CONDUIT     1.360     0  23:02      1.99    0.61    0.81
  GQ54                 CONDUIT     0.160     0  23:00      0.86    0.14    0.62
  GQ55                 CONDUIT     0.121     0  23:00      0.69    0.08    0.60
  GQ56                 CONDUIT     1.532     0  23:00      3.95    0.84    0.74
  GQ57                 CONDUIT     0.216     0  23:00      0.91    0.14    0.48
  GQ58                 CONDUIT     0.449     0  23:00      1.35    0.14    0.63
  GQ59                 CONDUIT     0.974     0  23:03      2.07    0.81    0.88
  GQ60                 CONDUIT     0.747     0  23:00      0.63    0.18    0.64
  GQ61                 CONDUIT     0.103     0  23:00      0.34    0.01    0.54
  GQ62                 CONDUIT     0.214     0  23:00      0.41    0.02    0.55
  GQ63                 CONDUIT     0.486     0  23:00      0.86    0.01    0.54
  GQ64                 CONDUIT     0.035     0  23:00      1.05    0.03    0.18
  GQ65                 CONDUIT     0.015     0  23:00      0.27    0.03    0.26
  GQ66                 CONDUIT     0.061     0  23:00      0.47    0.02    0.55
  GQ67                 CONDUIT     0.323     0  23:00      0.33    0.22    1.00
  GQ68                 CONDUIT     0.256     0  23:00      0.52    0.08    0.60
  GQ69                 CONDUIT     0.560     0  23:00      1.62    0.20    0.65
  GQ70                 CONDUIT     0.199     0  23:00      6.10    0.03    0.12
  GQ71                 CONDUIT     0.238     0  23:00      4.45    0.06    0.16
  GQ72                 CONDUIT     1.427     0  23:00      4.82    0.34    0.40
  GQ73                 CONDUIT     0.573     0  23:00      9.34    0.04    0.13
  GQ74                 CONDUIT     0.125     0  23:00      1.07    0.02    0.21
  GQ75                 CONDUIT     0.129     0  23:00      0.28    0.04    0.57
  GQ76                 CONDUIT     0.975     0  23:00      4.66    0.21    0.31
  GQ77                 CONDUIT     0.000     0  00:00      0.00    0.00    0.14
  GQ78                 CONDUIT     0.433     0  23:00      1.92    0.47    0.74
  GQ79                 CONDUIT     0.220     0  23:00      1.08    0.47    0.68
  GQ80                 CONDUIT     0.182     0  23:00      0.81    0.30    0.74
  GQ81                 CONDUIT     0.370     0  22:10      1.31    2.34    1.00
  GQ82                 CONDUIT     0.211     0  23:00      1.16    0.15    0.63
  GQ83                 CONDUIT     0.228     0  23:00      2.24    0.15    0.39
  GQ84                 CONDUIT     0.443     0  23:00      2.28    0.35    0.67
  GQ85                 CONDUIT     0.151     0  23:00      0.71    0.26    0.70
  GQ86                 CONDUIT     0.064     0  23:00      0.45    0.03    0.56
  GQ87                 CONDUIT     0.023     0  23:00      0.14    0.03    0.56
  GQ88                 CONDUIT     0.154     0  23:00      0.83    0.14    0.62
  GQ89                 CONDUIT     0.127     0  23:00      0.67    0.17    0.64
  GQ90                 CONDUIT     0.131     0  23:00      0.71    0.13    0.62
  GQ91                 CONDUIT     0.110     0  23:00      0.59    0.13    0.62
  GQ92                 CONDUIT     0.260     0  23:01      1.47    0.37    0.38
  GQ93                 CONDUIT     0.274     0  23:01      1.27    0.24    0.44
  GQ94                 CONDUIT     0.501     0  23:01      1.80    0.59    0.54
  GQ95                 CONDUIT     0.071     0  23:00      0.25    0.02    0.55
  GQ96                 CONDUIT     0.232     0  23:00      1.10    0.40    0.44
  GQ97                 CONDUIT     0.130     0  23:00      1.62    0.23    0.33
  GQ98                 CONDUIT     0.158     0  23:00      0.80    0.22    0.66
  GQ99                 CONDUIT     0.233     0  23:00      0.57    0.01    0.54
  GQ100                CONDUIT     0.167     0  23:00      2.32    0.29    0.30
  GQ101                CONDUIT     0.116     0  23:00      0.73    0.09    0.60
  GQ102                CONDUIT     0.447     0  23:00      1.35    0.14    0.62
  GQ103                CONDUIT     0.227     0  23:00      1.07    0.35    0.70
  GQ104                CONDUIT     0.396     0  23:00      1.92    0.29    0.68
  GQ105                CONDUIT     0.315     0  06:59      0.63    1.00    1.00
  GQ106                CONDUIT     0.132     0  23:00      0.71    0.13    0.62
  GQ107                CONDUIT     0.482     0  23:00      2.18    0.43    0.73
  GQ108                CONDUIT     0.829     0  10:50      1.65    1.00    1.00
  GQ109                CONDUIT     0.095     0  23:00      1.10    0.13    0.35
  GQ110                CONDUIT     0.156     0  23:00      0.61    0.02    0.55
  GQ111                CONDUIT     0.141     0  23:00      0.77    0.13    0.62
  GQ112                CONDUIT     0.430     0  23:00      2.35    0.08    0.22
  GQ113                CONDUIT     0.237     0  23:00      2.91    0.18    0.33
  GQ114                CONDUIT     0.143     0  23:00      0.29    0.06    0.60
  GQ115                CONDUIT     0.062     0  23:00      0.75    0.01    0.13
  GQ116                CONDUIT     0.089     0  23:00      0.21    0.01    0.54
  GQ117                CONDUIT     0.316     0  23:00      3.52    0.20    0.23
  GQ118                CONDUIT     0.120     0  23:00      1.48    0.04    0.24
  GQ119                CONDUIT     1.283     0  23:01      3.10    0.56    0.77
  GQ120                CONDUIT     0.000     0  00:00      0.00    0.00    0.50
  GQ121                CONDUIT     0.435     0  23:00      0.87    0.31    1.00
  GQ122                CONDUIT     0.182     0  23:00      1.04    0.03    0.56
  GQ123                CONDUIT     0.122     0  23:00      1.01    0.06    0.58
  GQ124                CONDUIT     0.076     0  23:00      0.79    0.03    0.25
  GQ125                CONDUIT     0.151     0  23:00      0.79    0.17    0.64
  GQ126                CONDUIT     0.184     0  23:00      0.96    0.18    0.64
  GQ127                CONDUIT     0.428     0  23:01      1.58    0.55    0.53
  GQ128                CONDUIT     0.632     0  23:00      2.20    0.14    0.30
  GQ129                CONDUIT     1.116     0  23:00      2.22    0.85    1.00
  GQ130                CONDUIT     1.007     0  23:00      3.56    0.94    1.00
  GQ131                CONDUIT     0.364     0  23:00      1.65    0.42    0.73
  
  
  ***************************
  Flow Classification Summary
  ***************************
  
  -------------------------------------------------------------------------------------
                      Adjusted    ---------- Fraction of Time in Flow Class ---------- 
                       /Actual         Up    Down  Sub   Sup   Up    Down  Norm  Inlet 
  Conduit               Length    Dry  Dry   Dry   Crit  Crit  Crit  Crit  Ltd   Ctrl  
  -------------------------------------------------------------------------------------
  GQ1                     1.00   0.01  0.00  0.00  0.01  0.98  0.00  0.00  0.00  0.00
  GQ2                     1.00   0.01  0.00  0.00  0.02  0.97  0.00  0.00  0.96  0.00
  GQ3                     1.00   0.01  0.00  0.00  0.00  0.99  0.00  0.00  0.26  0.00
  GQ4                     1.00   0.01  0.00  0.00  0.99  0.00  0.00  0.00  0.79  0.00
  GQ5                     1.00   0.01  0.00  0.00  0.99  0.00  0.00  0.00  0.96  0.00
  GQ6                     1.00   0.01  0.00  0.00  0.99  0.00  0.00  0.00  0.96  0.00
  GQ7                     1.00   0.01  0.00  0.00  0.00  0.99  0.00  0.00  0.06  0.00
  GQ8                     1.00   0.01  0.00  0.00  0.99  0.00  0.00  0.00  0.95  0.00
  GQ9                     1.00   0.01  0.00  0.00  0.98  0.00  0.00  0.00  0.96  0.00
  GQ10                    1.00   0.01  0.00  0.00  0.50  0.49  0.00  0.00  0.81  0.00
  GQ11                    1.00   0.01  0.00  0.00  0.27  0.72  0.00  0.00  0.96  0.00
  GQ12                    1.00   0.01  0.00  0.00  0.98  0.00  0.00  0.00  0.96  0.00
  GQ13                    1.00   0.01  0.00  0.00  0.99  0.00  0.00  0.00  0.96  0.00
  GQ14                    1.00   0.01  0.00  0.00  0.99  0.00  0.00  0.00  0.00  0.00
  GQ15                    1.00   0.01  0.00  0.00  0.00  0.99  0.00  0.00  0.01  0.00
  GQ16                    1.00   0.01  0.00  0.00  0.00  0.99  0.00  0.00  0.00  0.00
  GQ17                    1.00   0.01  0.00  0.00  0.96  0.02  0.00  0.00  0.96  0.00
  GQ18                    1.00   0.01  0.00  0.00  0.96  0.02  0.00  0.00  0.02  0.00
  GQ19                    1.00   0.01  0.00  0.00  0.94  0.05  0.00  0.00  0.96  0.00
  GQ20                    1.00   0.01  0.00  0.00  0.99  0.00  0.00  0.00  0.96  0.00
  GQ21                    1.00   0.01  0.00  0.00  0.14  0.85  0.00  0.00  0.96  0.00
  GQ22                    1.00   0.01  0.00  0.00  0.05  0.94  0.00  0.00  0.96  0.00
  GQ23                    1.00   0.01  0.00  0.00  0.00  0.98  0.00  0.00  0.05  0.00
  GQ24                    1.00   0.01  0.00  0.00  0.99  0.00  0.00  0.00  0.96  0.00
  GQ25                    1.00   0.01  0.00  0.00  0.00  0.99  0.00  0.00  0.01  0.00
  GQ26                    1.00   0.01  0.00  0.00  0.00  0.99  0.00  0.00  0.95  0.00
  GQ27                    1.00   0.01  0.00  0.00  0.96  0.03  0.00  0.00  0.96  0.00
  GQ28                    1.00   0.01  0.00  0.00  0.99  0.00  0.00  0.00  0.96  0.00
  GQ29                    1.00   0.01  0.00  0.00  0.99  0.00  0.00  0.00  0.05  0.00
  GQ30                    1.00   0.01  0.00  0.00  0.98  0.01  0.00  0.00  0.04  0.00
  GQ31                    1.00   0.01  0.00  0.00  0.99  0.00  0.00  0.00  0.96  0.00
  GQ32                    1.00   0.01  0.00  0.00  0.00  0.98  0.00  0.00  0.01  0.00
  GQ33                    1.00   0.01  0.00  0.00  0.75  0.23  0.00  0.00  0.96  0.00
  GQ34                    1.00   0.01  0.00  0.00  0.99  0.00  0.00  0.00  0.96  0.00
  GQ35                    1.00   0.01  0.00  0.00  0.00  0.99  0.00  0.00  0.77  0.00
  GQ36                    1.00   0.01  0.00  0.00  0.00  0.99  0.00  0.00  0.95  0.00
  GQ37                    1.00   0.01  0.00  0.00  0.99  0.00  0.00  0.00  0.96  0.00
  GQ38                    1.00   0.01  0.00  0.00  0.99  0.00  0.00  0.00  0.96  0.00
  GQ39                    1.00   0.01  0.00  0.00  0.98  0.01  0.00  0.00  0.96  0.00
  GQ40                    1.00   0.01  0.00  0.00  0.00  0.98  0.00  0.00  0.96  0.00
  GQ41                    1.00   0.01  0.00  0.00  0.99  0.00  0.00  0.00  0.96  0.00
  GQ42                    1.00   0.01  0.00  0.00  0.99  0.00  0.00  0.00  0.92  0.00
  GQ43                    1.00   0.01  0.00  0.00  0.00  0.99  0.00  0.00  0.96  0.00
  GQ44                    1.00   0.01  0.00  0.00  0.99  0.00  0.00  0.00  0.66  0.00
  GQ45                    1.00   0.01  0.00  0.00  0.08  0.90  0.00  0.00  0.96  0.00
  GQ46                    1.00   0.01  0.00  0.00  0.34  0.65  0.00  0.00  0.86  0.00
  GQ47                    1.00   0.01  0.00  0.00  0.99  0.00  0.00  0.00  0.96  0.00
  GQ48                    1.00   0.01  0.00  0.00  0.99  0.00  0.00  0.00  0.96  0.00
  GQ49                    1.00   0.01  0.00  0.00  0.98  0.00  0.00  0.00  0.96  0.00
  GQ50                    1.00   0.01  0.00  0.00  0.99  0.00  0.00  0.00  0.96  0.00
  GQ51                    1.00   0.01  0.00  0.00  0.00  0.99  0.00  0.00  0.83  0.00
  GQ52                    1.00   0.01  0.00  0.00  0.99  0.00  0.00  0.00  0.92  0.00
  GQ53                    1.00   0.01  0.00  0.00  0.99  0.00  0.00  0.00  0.93  0.00
  GQ54                    1.00   0.01  0.00  0.00  0.99  0.00  0.00  0.00  0.96  0.00
  GQ55                    1.00   0.01  0.00  0.00  0.98  0.00  0.00  0.00  0.96  0.00
  GQ56                    1.00   0.01  0.00  0.00  0.00  0.99  0.00  0.00  0.87  0.00
  GQ57                    1.00   0.01  0.00  0.00  0.99  0.00  0.00  0.00  0.96  0.00
  GQ58                    1.00   0.01  0.00  0.00  0.98  0.00  0.00  0.00  0.96  0.00
  GQ59                    1.00   0.01  0.00  0.00  0.99  0.00  0.00  0.00  0.93  0.00
  GQ60                    1.00   0.01  0.00  0.00  0.99  0.00  0.00  0.00  0.08  0.00
  GQ61                    1.00   0.01  0.00  0.00  0.99  0.00  0.00  0.00  0.96  0.00
  GQ62                    1.00   0.01  0.00  0.00  0.99  0.00  0.00  0.00  0.96  0.00
  GQ63                    1.00   0.01  0.00  0.00  0.98  0.01  0.00  0.00  0.96  0.00
  GQ64                    1.00   0.01  0.00  0.00  0.24  0.75  0.00  0.00  0.96  0.00
  GQ65                    1.00   0.01  0.00  0.00  0.99  0.00  0.00  0.00  0.96  0.00
  GQ66                    1.00   0.01  0.00  0.00  0.98  0.00  0.00  0.00  0.96  0.00
  GQ67                    1.00   0.01  0.00  0.00  0.99  0.00  0.00  0.00  0.03  0.00
  GQ68                    1.00   0.01  0.00  0.00  0.99  0.00  0.00  0.00  0.96  0.00
  GQ69                    1.00   0.01  0.00  0.00  0.98  0.01  0.00  0.00  0.96  0.00
  GQ70                    1.00   0.01  0.00  0.00  0.00  0.99  0.00  0.00  0.03  0.00
  GQ71                    1.00   0.01  0.00  0.00  0.00  0.99  0.00  0.00  0.13  0.00
  GQ72                    1.00   0.01  0.00  0.00  0.00  0.99  0.00  0.00  0.27  0.00
  GQ73                    1.00   0.01  0.00  0.00  0.00  0.99  0.00  0.00  0.01  0.00
  GQ74                    1.00   0.01  0.00  0.00  0.96  0.03  0.00  0.00  0.96  0.00
  GQ75                    1.00   0.01  0.00  0.00  0.99  0.00  0.00  0.00  0.96  0.00
  GQ76                    1.00   0.01  0.00  0.00  0.00  0.99  0.00  0.00  0.16  0.00
  GQ77                    1.00   0.01  0.99  0.00  0.00  0.00  0.00  0.00  0.00  0.00
  GQ78                    1.00   0.01  0.00  0.00  0.99  0.00  0.00  0.00  0.96  0.00
  GQ79                    1.00   0.01  0.00  0.00  0.99  0.00  0.00  0.00  0.04  0.00
  GQ80                    1.00   0.01  0.00  0.00  0.99  0.00  0.00  0.00  0.84  0.00
  GQ81                    1.00   0.01  0.00  0.00  0.99  0.00  0.00  0.00  0.09  0.00
  GQ82                    1.00   0.01  0.00  0.00  0.98  0.01  0.00  0.00  0.96  0.00
  GQ83                    1.00   0.01  0.00  0.00  0.00  0.99  0.00  0.00  0.96  0.00
  GQ84                    1.00   0.01  0.00  0.00  0.05  0.94  0.00  0.00  0.96  0.00
  GQ85                    1.00   0.01  0.00  0.00  0.99  0.00  0.00  0.00  0.92  0.00
  GQ86                    1.00   0.01  0.00  0.00  0.98  0.00  0.00  0.00  0.96  0.00
  GQ87                    1.00   0.01  0.00  0.00  0.99  0.00  0.00  0.00  0.96  0.00
  GQ88                    1.00   0.01  0.00  0.00  0.99  0.00  0.00  0.00  0.96  0.00
  GQ89                    1.00   0.01  0.00  0.00  0.98  0.00  0.00  0.00  0.96  0.00
  GQ90                    1.00   0.01  0.00  0.00  0.98  0.01  0.00  0.00  0.96  0.00
  GQ91                    1.00   0.01  0.00  0.00  0.98  0.00  0.00  0.00  0.96  0.00
  GQ92                    1.00   0.01  0.00  0.00  0.92  0.07  0.00  0.00  0.00  0.00
  GQ93                    1.00   0.01  0.00  0.00  0.99  0.00  0.00  0.00  0.96  0.00
  GQ94                    1.00   0.01  0.00  0.00  0.15  0.83  0.00  0.00  0.08  0.00
  GQ95                    1.00   0.01  0.00  0.00  0.99  0.00  0.00  0.00  0.96  0.00
  GQ96                    1.00   0.01  0.00  0.00  0.99  0.00  0.00  0.00  0.62  0.00
  GQ97                    1.00   0.01  0.00  0.00  0.01  0.97  0.00  0.00  0.35  0.00
  GQ98                    1.00   0.01  0.00  0.00  0.99  0.00  0.00  0.00  0.96  0.00
  GQ99                    1.00   0.01  0.00  0.00  0.98  0.00  0.00  0.00  0.96  0.00
  GQ100                   1.00   0.01  0.00  0.00  0.00  0.99  0.00  0.00  0.00  0.00
  GQ101                   1.00   0.01  0.00  0.00  0.98  0.00  0.00  0.00  0.96  0.00
  GQ102                   1.00   0.01  0.00  0.00  0.98  0.01  0.00  0.00  0.96  0.00
  GQ103                   1.00   0.01  0.00  0.00  0.99  0.00  0.00  0.00  0.96  0.00
  GQ104                   1.00   0.01  0.00  0.00  0.97  0.01  0.00  0.00  0.96  0.00
  GQ105                   1.00   0.01  0.00  0.00  0.99  0.00  0.00  0.00  0.03  0.00
  GQ106                   1.00   0.01  0.00  0.00  0.98  0.01  0.00  0.00  0.96  0.00
  GQ107                   1.00   0.01  0.00  0.00  0.94  0.04  0.00  0.00  0.96  0.00
  GQ108                   1.00   0.01  0.00  0.00  0.99  0.00  0.00  0.00  0.06  0.00
  GQ109                   1.00   0.01  0.00  0.00  0.96  0.03  0.00  0.00  0.96  0.00
  GQ110                   1.00   0.01  0.00  0.00  0.98  0.00  0.00  0.00  0.96  0.00
  GQ111                   1.00   0.01  0.00  0.00  0.98  0.00  0.00  0.00  0.96  0.00
  GQ112                   1.00   0.01  0.00  0.00  0.00  0.99  0.00  0.00  0.95  0.00
  GQ113                   1.00   0.01  0.00  0.00  0.00  0.99  0.00  0.00  0.95  0.00
  GQ114                   1.00   0.01  0.00  0.00  0.99  0.00  0.00  0.00  0.04  0.00
  GQ115                   1.00   0.01  0.00  0.00  0.98  0.01  0.00  0.00  0.96  0.00
  GQ116                   1.00   0.01  0.00  0.00  0.99  0.00  0.00  0.00  0.96  0.00
  GQ117                   1.00   0.01  0.00  0.00  0.00  0.99  0.00  0.00  0.00  0.00
  GQ118                   1.00   0.01  0.00  0.00  0.30  0.69  0.00  0.00  0.96  0.00
  GQ119                   1.00   0.01  0.00  0.00  0.92  0.06  0.00  0.00  0.96  0.00
  GQ120                   1.00   0.01  0.03  0.00  0.95  0.00  0.00  0.00  0.00  0.00
  GQ121                   1.00   0.01  0.00  0.00  0.98  0.00  0.00  0.00  0.04  0.00
  GQ122                   1.00   0.01  0.00  0.00  0.96  0.03  0.00  0.00  0.96  0.00
  GQ123                   1.00   0.01  0.00  0.00  0.96  0.03  0.00  0.00  0.96  0.00
  GQ124                   1.00   0.01  0.00  0.00  0.98  0.00  0.00  0.00  0.96  0.00
  GQ125                   1.00   0.01  0.00  0.00  0.98  0.00  0.00  0.00  0.96  0.00
  GQ126                   1.00   0.01  0.00  0.00  0.98  0.00  0.00  0.00  0.96  0.00
  GQ127                   1.00   0.01  0.00  0.00  0.99  0.00  0.00  0.00  0.63  0.00
  GQ128                   1.00   0.01  0.00  0.00  0.02  0.96  0.00  0.00  0.94  0.00
  GQ129                   1.00   0.01  0.00  0.00  0.99  0.00  0.00  0.00  0.79  0.00
  GQ130                   1.00   0.01  0.00  0.00  0.68  0.30  0.00  0.00  0.79  0.00
  GQ131                   1.00   0.01  0.00  0.00  0.99  0.00  0.00  0.00  0.96  0.00
  
  
  *************************
  Conduit Surcharge Summary
  *************************
  
  ----------------------------------------------------------------------------
                                                           Hours        Hours 
                         --------- Hours Full --------   Above Full   Capacity
  Conduit                Both Ends  Upstream  Dnstream   Normal Flow   Limited
  ----------------------------------------------------------------------------
  GQ4                         1.56      1.56     22.82      0.01         0.01
  GQ5                         0.01      0.01     22.65      0.01         0.01
  GQ7                         0.01      0.01      0.70      0.01         0.01
  GQ9                         0.01      0.01     23.15      0.01         0.01
  GQ10                        3.37      3.37     23.23      0.29         0.01
  GQ12                        0.01      0.01     16.81      0.01         0.01
  GQ13                        0.01      0.01      1.04      0.01         0.01
  GQ18                        0.01      0.01     11.50     15.93         0.01
  GQ24                        0.01      0.01     23.01      0.01         0.01
  GQ27                        0.01      0.01     22.29      0.01         0.01
  GQ28                        0.01      0.01     22.72      0.01         0.01
  GQ29                       22.18     22.18     22.72      0.01         0.01
  GQ30                       22.29     22.29     22.88      0.01         0.01
  GQ31                        0.01      0.01     23.28      0.01         0.01
  GQ33                        0.01      0.01     23.28      0.01         0.01
  GQ37                        0.01      0.01     23.10      0.01         0.01
  GQ38                        0.01      0.01     23.10      0.01         0.01
  GQ39                        0.01      0.01     16.81      0.01         0.01
  GQ41                        0.01      0.01     22.66      0.01         0.01
  GQ42                        0.01      0.01     22.79      0.01         0.01
  GQ44                        2.85      2.85     11.50      0.01         0.01
  GQ45                        0.01      0.01      0.47      0.01         0.01
  GQ46                        0.47      0.47      2.85      0.01         0.01
  GQ47                        0.01      0.01     22.79      0.01         0.01
  GQ48                        0.01      0.01     22.94      0.01         0.01
  GQ49                        0.01      0.01     22.94      0.01         0.01
  GQ52                        0.01      0.01     22.18      0.01         0.01
  GQ53                        0.01      0.01     22.87      0.01         0.01
  GQ54                        0.01      0.01     22.97      0.01         0.01
  GQ55                        0.01      0.01     22.97      0.01         0.01
  GQ58                        0.01      0.01     22.48      0.01         0.01
  GQ59                        0.01      0.01     22.48      0.01         0.01
  GQ60                        0.01      0.01      0.33      0.01         0.01
  GQ61                        0.01      0.01     21.44      0.01         0.01
  GQ62                        0.01      0.01     21.64      0.01         0.01
  GQ63                        0.01      0.01     21.84      0.01         0.01
  GQ66                        0.01      0.01     21.83      0.01         0.01
  GQ67                       21.49     21.49     21.65      0.01         0.01
  GQ68                        0.01      0.01     22.15      0.01         0.01
  GQ69                        0.01      0.01     22.71      0.01         0.01
  GQ75                        0.01      0.01     22.12      0.01         0.01
  GQ78                        0.01      0.01     23.05      0.01         0.01
  GQ79                        0.01      0.01     23.05      0.01         0.01
  GQ80                        0.01      0.01     15.63      0.01         0.01
  GQ81                       15.63     15.63     16.81     12.69        10.41
  GQ82                        0.01      0.01     16.81      0.01         0.01
  GQ85                        0.01      0.01     23.33      0.01         0.01
  GQ86                        0.01      0.01     22.77      0.01         0.01
  GQ87                        0.01      0.01     22.77      0.01         0.01
  GQ88                        0.01      0.01     22.87      0.01         0.01
  GQ89                        0.01      0.01     22.27      0.01         0.01
  GQ90                        0.01      0.01     22.02      0.01         0.01
  GQ91                        0.01      0.01     22.49      0.01         0.01
  GQ95                        0.01      0.01     22.94      0.01         0.01
  GQ98                        0.01      0.01     22.70      0.01         0.01
  GQ99                        0.01      0.01     21.73      0.01         0.01
  GQ101                       0.01      0.01     22.48      0.01         0.01
  GQ102                       0.01      0.01     22.69      0.01         0.01
  GQ103                       0.01      0.01     22.92      0.01         0.01
  GQ104                       0.01      0.01     22.92      0.01         0.01
  GQ105                      22.62     22.62     22.69     16.96         0.01
  GQ106                       0.01      0.01     22.72      0.01         0.01
  GQ107                       0.01      0.01     22.72      0.01         0.01
  GQ108                      14.29     14.29     22.62      0.01         0.01
  GQ110                       0.01      0.01     22.12      0.01         0.01
  GQ111                       0.01      0.01     22.48      0.01         0.01
  GQ114                       0.01      0.01     22.90      0.01         0.01
  GQ116                       0.01      0.01     22.73      0.01         0.01
  GQ119                       0.01      0.01     23.00      0.01         0.01
  GQ120                       0.01      0.01     22.90      0.01         0.01
  GQ121                      22.68     22.68     23.00      0.01         0.01
  GQ122                       0.01      0.01     22.68      0.01         0.01
  GQ123                       0.01      0.01     22.72      0.01         0.01
  GQ125                       0.01      0.01     22.49      0.01         0.01
  GQ126                       0.01      0.01     22.48      0.01         0.01
  GQ129                       0.70      0.70     23.01      0.01         0.01
  GQ130                       0.98      0.98     23.46      0.01         0.01
  GQ131                       0.01      0.01     23.31      0.01         0.01
  

  Analysis begun on:  Sat Mar 25 16:24:37 2023
  Analysis ended on:  Sat Mar 25 16:24:44 2023
  Total elapsed time: 00:00:07