
  OWA STORM WATER MANAGEMENT MODEL - VERSION v5.1.14 (OWA 2022-07-31)
  --------------------------------------------------------------

  INP file created by DSDAConvertToSwmmTools 
  version 0.0.1 EcoVista 
  Title/Notes: 
  
  
  *********************************************************
  NOTE: The summary statistics displayed in this report are
  based on results found at every computational time step,  
  not just on results from each reporting time step.
  *********************************************************
  
  ****************
  Analysis Options
  ****************
  Flow Units ............... CMS
  Process Models:
    Rainfall/Runoff ........ YES
    RDII ................... NO
    Snowmelt ............... NO
    Groundwater ............ NO
    Flow Routing ........... YES
    Ponding Allowed ........ NO
    Water Quality .......... NO
  Infiltration Method ...... GREEN_AMPT
  Flow Routing Method ...... DYNWAVE
  Surcharge Method ......... EXTRAN
  Starting Date ............ 07/15/2020 00:00:00
  Ending Date .............. 07/15/2020 09:00:00
  Antecedent Dry Days ...... 0.0
  Report Time Step ......... 00:30:00
  Wet Time Step ............ 00:05:00
  Dry Time Step ............ 01:00:00
  Routing Time Step ........ 30.00 sec
  Variable Time Step ....... YES
  Maximum Trials ........... 8
  Number of Threads ........ 1
  Head Tolerance ........... 0.001500 m
  
  
  **************************        Volume         Depth
  Runoff Quantity Continuity     hectare-m            mm
  **************************     ---------       -------
  Total Precipitation ......       115.899        29.000
  Evaporation Loss .........         2.995         0.749
  Infiltration Loss ........        30.973         7.750
  Surface Runoff ...........        75.175        18.810
  Final Storage ............         6.852         1.714
  Continuity Error (%) .....        -0.083
  
  
  **************************        Volume        Volume
  Flow Routing Continuity        hectare-m      10^6 ltr
  **************************     ---------     ---------
  Dry Weather Inflow .......         0.000         0.000
  Wet Weather Inflow .......        75.133       751.336
  Groundwater Inflow .......         0.000         0.000
  RDII Inflow ..............         0.000         0.000
  External Inflow ..........         0.000         0.000
  External Outflow .........         6.817        68.173
  Flooding Loss ............        66.963       669.635
  Evaporation Loss .........         0.000         0.000
  Exfiltration Loss ........         0.000         0.000
  Initial Stored Volume ....         0.000         0.000
  Final Stored Volume ......         1.209        12.092
  Continuity Error (%) .....         0.191
  
  
  *************************
  Highest Continuity Errors
  *************************
  Node jd51 (7.26%)
  Node jd64 (5.88%)
  Node jd59 (5.84%)
  Node jd31 (5.29%)
  Node jd55 (4.78%)
  
  
  ***************************
  Time-Step Critical Elements
  ***************************
  Link GQ73 (96.50%)
  
  
  ********************************
  Highest Flow Instability Indexes
  ********************************
  Link GQ67 (16)
  Link GQ114 (10)
  Link GQ121 (5)
  Link GQ29 (3)
  Link GQ119 (2)
  
  
  *************************
  Routing Time Step Summary
  *************************
  Minimum Time Step           :     4.40 sec
  Average Time Step           :     8.47 sec
  Maximum Time Step           :    30.00 sec
  Percent in Steady State     :    -0.00
  Average Iterations per Step :     3.89
  Percent Not Converging      :    16.70
  
  
  ***************************
  Subcatchment Runoff Summary
  ***************************
  
  ------------------------------------------------------------------------------------------------------------------------------
                            Total      Total      Total      Total     Imperv       Perv      Total       Total     Peak  Runoff
                           Precip      Runon       Evap      Infil     Runoff     Runoff     Runoff      Runoff   Runoff   Coeff
  Subcatchment                 mm         mm         mm         mm         mm         mm         mm    10^6 ltr      CMS
  ------------------------------------------------------------------------------------------------------------------------------
  1                         29.00       0.00       0.45      16.25      11.41       0.00      11.41        4.52     0.57   0.394
  2                         29.00       0.00       0.80       6.17      20.10       0.00      20.10       18.17     2.31   0.693
  3                         29.00       0.00       0.84       5.29      21.00       0.00      21.00        8.40     1.07   0.724
  4                         29.00       0.00       0.86       4.55      21.73       0.00      21.73        1.82     0.23   0.749
  5                         29.00       0.00       0.76       7.39      19.23       0.00      19.23        2.38     0.30   0.663
  6                         29.00       0.00       0.73       8.31      18.44       0.00      18.44        1.71     0.22   0.636
  7                         29.00       0.00       0.76       7.42      19.07       0.00      19.07        8.31     1.06   0.657
  8                         29.00       0.00       0.97       1.62      24.21       0.00      24.21        3.37     0.43   0.835
  9                         29.00       0.00       0.99       0.81      24.95       0.00      24.95        2.92     0.37   0.860
  10                        29.00       0.00       0.86       4.72      21.52       0.00      21.52        4.85     0.62   0.742
  11                        29.00       0.00       0.92       2.77      23.18       0.00      23.18       11.49     1.46   0.799
  12                        29.00       0.00       0.73       8.34      18.32       0.00      18.32        8.94     1.14   0.632
  13                        29.00       0.00       0.91       3.13      22.88       0.00      22.88       10.35     1.32   0.789
  14                        29.00       0.00       0.91       3.16      22.91       0.00      22.91        4.32     0.55   0.790
  15                        29.00       0.00       0.84       5.10      21.17       0.00      21.17        7.15     0.91   0.730
  16                        29.00       0.00       0.87       4.21      21.93       0.00      21.93        6.48     0.82   0.756
  17                        29.00       0.00       0.82       5.79      20.56       0.00      20.56        8.60     1.09   0.709
  18                        29.00       0.00       0.94       2.28      23.60       0.00      23.60        9.75     1.24   0.814
  19                        29.00       0.00       0.94       2.39      23.50       0.00      23.50        5.28     0.67   0.810
  20                        29.00       0.00       0.93       2.55      23.27       0.00      23.27       12.49     1.59   0.802
  21                        29.00       0.00       0.99       0.85      24.84       0.00      24.84        7.79     0.99   0.857
  22                        29.00       0.00       0.97       1.37      24.37       0.00      24.37        3.00     0.38   0.840
  23                        29.00       0.00       0.90       3.55      22.46       0.00      22.46       12.86     1.64   0.775
  24                        29.00       0.00       0.87       4.43      21.68       0.00      21.68        3.84     0.49   0.748
  25                        29.00       0.00       0.93       2.72      23.27       0.00      23.27        4.71     0.60   0.803
  26                        29.00       0.00       0.79       6.62      19.73       0.00      19.73        6.93     0.88   0.680
  27                        29.00       0.00       0.95       2.17      23.60       0.00      23.60        9.97     1.27   0.814
  28                        29.00       0.00       0.97       1.60      24.15       0.00      24.15       11.42     1.46   0.833
  29                        29.00       0.00       0.86       4.50      21.73       0.00      21.73        5.07     0.64   0.749
  30                        29.00       0.00       0.99       0.98      24.87       0.00      24.87        1.78     0.23   0.858
  31                        29.00       0.00       1.00       0.61      25.08       0.00      25.08        5.53     0.70   0.865
  32                        29.00       0.00       0.98       1.29      24.47       0.00      24.47       10.57     1.35   0.844
  33                        29.00       0.00       0.99       0.94      24.75       0.00      24.75        8.72     1.11   0.854
  34                        29.00       0.00       0.92       2.94      23.04       0.00      23.04        6.75     0.86   0.795
  35                        29.00       0.00       0.95       2.19      23.68       0.00      23.68        9.82     1.25   0.817
  36                        29.00       0.00       0.78       6.91      19.62       0.00      19.62        7.72     0.98   0.676
  37                        29.00       0.00       0.97       1.57      24.23       0.00      24.23        5.38     0.69   0.835
  38                        29.00       0.00       0.91       3.28      22.75       0.00      22.75        8.68     1.10   0.785
  39                        29.00       0.00       0.82       5.77      20.60       0.00      20.60        8.70     1.11   0.710
  40                        29.00       0.00       0.91       3.14      22.88       0.00      22.88        5.23     0.67   0.789
  41                        29.00       0.00       0.93       2.55      23.43       0.00      23.43        4.62     0.59   0.808
  42                        29.00       0.00       0.93       2.58      23.26       0.00      23.26        5.75     0.73   0.802
  43                        29.00       0.00       0.78       6.78      19.65       0.00      19.65       15.53     1.97   0.678
  44                        29.00       0.00       0.84       5.29      20.93       0.00      20.93       10.12     1.29   0.722
  45                        29.00       0.00       0.79       6.73      19.72       0.00      19.72       14.27     1.81   0.680
  46                        29.00       0.00       0.76       7.50      19.13       0.00      19.13        9.56     1.21   0.660
  47                        29.00       0.00       0.80       6.41      19.99       0.00      19.99       23.31     2.96   0.689
  48                        29.00       0.00       0.95       2.01      23.73       0.00      23.73       13.77     1.76   0.818
  49                        29.00       0.00       0.87       4.30      21.74       0.00      21.74       14.72     1.88   0.750
  50                        29.00       0.00       0.96       1.63      23.97       0.00      23.97        9.42     1.20   0.827
  51                        29.00       0.00       0.92       2.82      22.97       0.00      22.97        4.30     0.55   0.792
  52                        29.00       0.00       0.45      16.27      11.41       0.00      11.41       11.71     1.47   0.394
  53                        29.00       0.00       0.65      10.56      16.46       0.00      16.46       17.53     2.21   0.567
  54                        29.00       0.00       0.80       6.25      20.17       0.00      20.17        4.92     0.63   0.695
  55                        29.00       0.00       0.46      15.97      11.67       0.00      11.67        9.21     1.16   0.402
  56                        29.00       0.00       0.17      24.09       4.48       0.00       4.48        3.65     0.45   0.155
  57                        29.00       0.00       0.91       3.23      22.68       0.00      22.68       18.84     2.40   0.782
  58                        29.00       0.00       0.84       5.12      21.14       0.00      21.14        3.48     0.44   0.729
  59                        29.00       0.00       0.82       5.69      20.72       0.00      20.72        2.64     0.33   0.714
  60                        29.00       0.00       0.31      20.27       7.88       0.00       7.88        2.26     0.28   0.272
  61                        29.00       0.00       0.48      15.42      12.08       0.00      12.08        4.55     0.58   0.417
  62                        29.00       0.00       0.67      10.09      16.76       0.00      16.76       19.64     2.49   0.578
  63                        29.00       0.00       0.91       3.20      22.65       0.00      22.65       43.79     5.58   0.781
  64                        29.00       0.00       0.68       9.75      17.17       0.00      17.17        3.69     0.47   0.592
  65                        29.00       0.00       0.92       2.83      22.98       0.00      22.98       15.45     1.97   0.792
  66                        29.00       0.00       0.73       8.39      18.22       0.00      18.22        4.64     0.59   0.628
  67                        29.00       0.00       0.68       9.74      17.22       0.00      17.22        5.57     0.70   0.594
  68                        29.00       0.00       0.81       5.89      20.49       0.00      20.49        2.28     0.29   0.707
  69                        29.00       0.00       0.48      15.44      12.23       0.00      12.23        3.91     0.49   0.422
  70                        29.00       0.00       0.67       9.91      16.93       0.00      16.93       13.93     1.77   0.584
  71                        29.00       0.00       0.83       5.42      20.90       0.00      20.90        2.56     0.33   0.721
  72                        29.00       0.00       0.88       4.14      22.03       0.00      22.03        2.74     0.35   0.760
  73                        29.00       0.00       0.79       6.48      20.03       0.00      20.03        3.33     0.42   0.691
  74                        29.00       0.00       0.76       7.53      19.09       0.00      19.09        4.11     0.52   0.658
  75                        29.00       0.00       0.84       5.14      21.16       0.00      21.16        3.05     0.39   0.730
  76                        29.00       0.00       0.89       3.89      22.27       0.00      22.27        2.16     0.27   0.768
  77                        29.00       0.00       0.94       2.23      23.67       0.00      23.67        2.56     0.33   0.816
  78                        29.00       0.00       0.91       3.17      22.84       0.00      22.84        2.51     0.32   0.788
  79                        29.00       0.00       0.40      17.67      10.19       0.00      10.19       10.80     1.35   0.351
  80                        29.00       0.00       0.75       7.65      18.87       0.00      18.87       11.81     1.50   0.651
  81                        29.00       0.00       0.76       7.32      19.17       0.00      19.17        8.35     1.06   0.661
  82                        29.00       0.00       0.73       8.23      18.37       0.00      18.37       16.84     2.14   0.633
  83                        29.00       0.00       0.92       3.04      23.00       0.00      23.00        2.81     0.36   0.793
  84                        29.00       0.00       0.86       4.50      21.68       0.00      21.68        2.59     0.33   0.748
  85                        29.00       0.00       1.01       0.22      25.47       0.00      25.47        2.37     0.30   0.878
  86                        29.00       0.00       0.94       2.45      23.49       0.00      23.49        3.46     0.44   0.810
  87                        29.00       0.00       1.00       0.62      25.03       0.00      25.03        3.29     0.42   0.863
  88                        29.00       0.00       0.90       3.62      22.50       0.00      22.50        2.15     0.27   0.776
  89                        29.00       0.00       0.94       2.33      23.61       0.00      23.61        4.55     0.58   0.814
  90                        29.00       0.00       1.02       0.01      25.70       0.00      25.70        0.29     0.04   0.886
  91                        29.00       0.00       0.85       4.86      21.25       0.00      21.25        4.63     0.59   0.733
  92                        29.00       0.00       0.94       2.26      23.66       0.00      23.66        2.96     0.38   0.816
  93                        29.00       0.00       0.77       7.20      19.32       0.00      19.32        9.89     1.26   0.666
  94                        29.00       0.00       0.69       9.39      17.55       0.00      17.55        1.23     0.15   0.605
  95                        29.00       0.00       1.02       0.03      25.62       0.00      25.62        0.56     0.07   0.883
  96                        29.00       0.00       0.82       5.62      20.75       0.00      20.75        2.53     0.32   0.715
  97                        29.00       0.00       1.00       0.61      25.10       0.00      25.10        2.49     0.32   0.866
  98                        29.00       0.00       0.83       5.48      20.88       0.00      20.88        2.57     0.33   0.720
  99                        29.00       0.00       0.41      17.35      10.50       0.00      10.50        3.90     0.49   0.362
  100                       29.00       0.00       0.46      16.05      11.67       0.00      11.67        2.99     0.37   0.402
  101                       29.00       0.00       0.47      15.73      11.93       0.00      11.93        5.85     0.73   0.411
  102                       29.00       0.00       0.76       7.37      19.19       0.00      19.19        4.68     0.59   0.662
  103                       29.00       0.00       0.25      21.77       6.55       0.00       6.55        2.38     0.30   0.226
  104                       29.00       0.00       0.17      24.11       4.43       0.00       4.43        4.29     0.53   0.153
  105                       29.00       0.00       0.84       5.15      21.17       0.00      21.17        2.77     0.35   0.730
  106                       29.00       0.00       0.46      16.08      11.60       0.00      11.60        2.83     0.36   0.400
  
  
  ******************
  Node Depth Summary
  ******************
  
  ---------------------------------------------------------------------------------
                                 Average  Maximum  Maximum  Time of Max    Reported
                                   Depth    Depth      HGL   Occurrence   Max Depth
  Node                 Type       Meters   Meters   Meters  days hr:min      Meters
  ---------------------------------------------------------------------------------
  jd1                  JUNCTION     0.11     0.20   273.20     0  04:00        0.20
  jd2                  JUNCTION     0.66     3.00   270.00     0  03:18        2.94
  jd3                  JUNCTION     2.80     3.00   266.00     0  01:35        3.00
  jd4                  JUNCTION     1.54     3.00   270.00     0  01:52        3.00
  jd5                  JUNCTION     0.08     0.14   274.14     0  04:00        0.14
  jd6                  JUNCTION     0.10     0.18   275.18     0  04:00        0.18
  jd7                  JUNCTION     0.31     0.50   264.60     0  04:00        0.50
  jd8                  JUNCTION     1.84     3.00   267.00     0  01:36        3.00
  jd9                  JUNCTION     1.61     3.00   268.00     0  01:41        3.00
  jd10                 JUNCTION     2.82     3.00   273.00     0  01:29        3.00
  jd11                 JUNCTION     0.09     0.16   282.16     0  04:00        0.16
  jd12                 JUNCTION     2.83     3.00   272.00     0  01:28        3.00
  jd13                 JUNCTION     0.11     0.20   289.20     0  04:00        0.20
  jd14                 JUNCTION     0.41     3.00   283.00     0  03:27        1.92
  jd15                 JUNCTION     0.25     0.51   278.51     0  04:00        0.51
  jd16                 JUNCTION     0.27     0.54   274.54     0  04:00        0.54
  jd17                 JUNCTION     1.96     3.00   278.80     0  01:40        3.00
  jd18                 JUNCTION     0.59     3.00   282.00     0  03:29        3.00
  jd19                 JUNCTION     1.47     3.00   270.00     0  01:47        3.00
  jd20                 JUNCTION     0.19     0.31   273.31     0  04:00        0.31
  jd21                 JUNCTION     2.79     3.00   273.00     0  01:34        3.00
  jd22                 JUNCTION     1.89     3.00   275.00     0  01:37        3.00
  jd23                 JUNCTION     0.22     0.47   278.47     0  04:00        0.47
  jd24                 JUNCTION     0.13     0.23   285.23     0  04:00        0.23
  jd25                 JUNCTION     0.21     0.42   279.42     0  04:00        0.42
  jd26                 JUNCTION     0.60     3.00   288.00     0  03:22        3.00
  jd27                 JUNCTION     0.20     0.39   291.39     0  04:00        0.39
  jd28                 JUNCTION     2.84     3.00   290.00     0  01:25        3.00
  jd29                 JUNCTION     0.09     0.16   299.16     0  04:00        0.16
  jd30                 JUNCTION     0.12     0.23   290.23     0  04:00        0.23
  jd31                 JUNCTION     1.04     3.00   275.00     0  01:43        1.47
  jd32                 JUNCTION     2.83     3.00   275.00     0  01:29        3.00
  jd33                 JUNCTION     0.17     0.33   289.33     0  04:00        0.33
  jd34                 JUNCTION     0.20     0.42   294.42     0  04:00        0.42
  jd35                 JUNCTION     2.86     3.00   292.00     0  01:21        3.00
  jd36                 JUNCTION     0.79     3.00   302.00     0  03:10        3.00
  jd37                 JUNCTION     0.76     3.00   306.00     0  03:11        3.00
  jd38                 JUNCTION     0.37     0.77   297.77     0  04:00        0.77
  jd39                 JUNCTION     2.80     3.00   297.00     0  01:34        3.00
  jd40                 JUNCTION     1.46     3.00   302.00     0  02:01        3.00
  jd41                 JUNCTION     2.74     3.00   296.00     0  01:49        3.00
  jd42                 JUNCTION     0.18     0.34   305.34     0  04:00        0.34
  jd43                 JUNCTION     1.39     3.00   300.00     0  02:00        3.00
  jd44                 JUNCTION     1.37     3.00   286.00     0  02:02        3.00
  jd45                 JUNCTION     2.81     3.00   282.00     0  01:32        3.00
  jd46                 JUNCTION     0.26     0.51   275.51     0  04:00        0.51
  jd47                 JUNCTION     0.14     0.26   315.26     0  04:00        0.26
  jd48                 JUNCTION     0.10     0.18   325.18     0  04:00        0.18
  jd49                 JUNCTION     0.24     0.46   289.46     0  04:00        0.46
  jd50                 JUNCTION     2.84     3.00   278.00     0  01:24        3.00
  jd51                 JUNCTION     2.72     3.00   313.00     0  01:51        3.00
  jd52                 JUNCTION     0.62     3.00   326.00     0  03:20        2.00
  jd53                 JUNCTION     0.80     3.00   325.00     0  03:16        2.97
  jd54                 JUNCTION     0.26     0.49   326.49     0  04:00        0.49
  jd55                 JUNCTION     1.60     3.00   325.00     0  01:47        3.00
  jd56                 JUNCTION     0.17     0.34   327.34     0  04:00        0.34
  jd59                 JUNCTION     2.70     3.00   320.80     0  01:54        3.00
  jd60                 JUNCTION     2.83     3.00   319.00     0  01:27        3.00
  jd61                 JUNCTION     0.13     0.24   329.24     0  04:00        0.24
  jd62                 JUNCTION     0.06     0.11   335.11     0  04:00        0.11
  jd63                 JUNCTION     0.06     0.12   324.12     0  04:00        0.12
  jd64                 JUNCTION     2.53     3.00   321.00     0  01:54        2.86
  jd65                 JUNCTION     1.77     3.00   307.00     0  01:39        3.00
  jd66                 JUNCTION     2.82     3.00   304.00     0  01:30        3.00
  jd69                 JUNCTION     0.21     0.40   333.40     0  04:00        0.40
  jd79                 JUNCTION     2.65     3.00   274.00     0  01:26        3.00
  jd80                 JUNCTION     2.00     3.00   279.00     0  01:31        3.00
  jd81                 JUNCTION     0.13     0.25   288.25     0  04:00        0.25
  jd83                 JUNCTION     2.87     3.00   323.00     0  01:18        3.00
  jd84                 JUNCTION     0.22     0.48   323.48     0  04:00        0.48
  jd85                 JUNCTION     2.83     3.00   324.00     0  01:28        3.00
  jd87                 JUNCTION     2.83     3.00   322.00     0  01:28        3.00
  jd89                 JUNCTION     0.14     0.27   324.27     0  04:00        0.27
  jd90                 JUNCTION     0.13     0.24   328.24     0  04:00        0.24
  jd92                 JUNCTION     0.13     0.24   326.24     0  04:00        0.24
  jd93                 JUNCTION     0.79     3.00   327.00     0  03:15        3.00
  jd94                 JUNCTION     0.37     3.00   329.20     0  03:30        1.56
  jd95                 JUNCTION     0.39     2.99   329.99     0  03:36        1.46
  jd96                 JUNCTION     2.85     3.00   308.00     0  01:24        3.00
  jd97                 JUNCTION     0.39     3.00   330.20     0  03:36        1.45
  jd98                 JUNCTION     0.17     0.33   329.33     0  04:00        0.33
  jd99                 JUNCTION     2.81     3.00   327.00     0  01:31        3.00
  jd101                JUNCTION     0.10     0.18   321.18     0  04:00        0.18
  jd102                JUNCTION     0.21     0.42   324.42     0  04:00        0.42
  jd103                JUNCTION     0.10     0.19   318.19     0  04:00        0.19
  jd106                JUNCTION     2.76     3.00   287.00     0  01:41        3.00
  jd107                JUNCTION     0.19     0.36   332.36     0  04:00        0.36
  jd108                JUNCTION     1.15     1.91   327.91     0  01:27        1.41
  jd109                JUNCTION     0.15     0.28   343.28     0  04:00        0.28
  jd110                JUNCTION     2.83     3.00   327.00     0  01:28        3.00
  jd111                JUNCTION     0.07     0.12   344.12     0  04:00        0.12
  jd112                JUNCTION     0.08     0.15   334.15     0  04:00        0.15
  jd113                JUNCTION     0.09     0.17   348.17     0  04:00        0.17
  jd114                JUNCTION     2.81     3.00   317.00     0  01:31        3.00
  jd117                JUNCTION     1.25     3.00   319.00     0  01:34        2.17
  jd118                JUNCTION     0.08     0.15   330.15     0  04:00        0.15
  jd120                JUNCTION     0.14     0.27   327.27     0  04:00        0.27
  jd121                JUNCTION     0.15     0.28   320.28     0  04:00        0.28
  jd122                JUNCTION     2.80     3.00   276.00     0  01:33        3.00
  jd123                JUNCTION     2.79     3.00   276.20     0  01:35        3.00
  jd124                JUNCTION     2.87     3.00   271.00     0  01:16        3.00
  jd125                JUNCTION     1.53     3.00   278.00     0  01:49        3.00
  jd126                JUNCTION     2.86     3.00   275.00     0  01:20        3.00
  jd135                JUNCTION     0.12     0.23   289.23     0  04:00        0.23
  jd136                JUNCTION     0.24     0.46   341.46     0  04:00        0.46
  psk1                 OUTFALL      0.08     0.15   279.15     0  04:00        0.15
  psk2                 OUTFALL      0.12     0.23   270.23     0  04:00        0.23
  psk3                 OUTFALL      0.27     0.54   271.54     0  04:00        0.54
  psk4                 OUTFALL      0.00     0.00   280.00     0  00:00        0.00
  psk5                 OUTFALL      0.11     0.20   263.20     0  04:00        0.20
  psk6                 OUTFALL      0.08     0.14   259.14     0  04:00        0.14
  psk7                 OUTFALL      0.31     0.50   262.50     0  04:00        0.50
  psk8                 OUTFALL      0.00     0.00   317.00     0  00:00        0.00
  
  
  *******************
  Node Inflow Summary
  *******************
  
  -------------------------------------------------------------------------------------------------
                                  Maximum  Maximum                  Lateral       Total        Flow
                                  Lateral    Total  Time of Max      Inflow      Inflow     Balance
                                   Inflow   Inflow   Occurrence      Volume      Volume       Error
  Node                 Type           CMS      CMS  days hr:min    10^6 ltr    10^6 ltr     Percent
  -------------------------------------------------------------------------------------------------
  jd1                  JUNCTION     0.569    0.905     0  04:00        4.51        7.28       0.072
  jd2                  JUNCTION     0.881    1.199     0  04:00        6.92        9.47       0.126
  jd3                  JUNCTION     1.057    2.766     0  04:00        8.31        24.8       1.615
  jd4                  JUNCTION     1.273    1.419     0  04:00        9.97        11.1       0.196
  jd5                  JUNCTION     0.372    0.626     0  04:00        2.92        5.03       0.023
  jd6                  JUNCTION     0.429    0.429     0  04:00        3.37        3.37       0.035
  jd7                  JUNCTION     0.217    2.122     0  04:00        1.71        22.5       0.125
  jd8                  JUNCTION     0.301    1.247     0  04:00        2.38        15.4       0.854
  jd9                  JUNCTION     0.231    1.299     0  04:00        1.82        15.3       0.135
  jd10                 JUNCTION     0.617    0.782     0  04:00        4.84        6.16       1.654
  jd11                 JUNCTION     0.910    0.910     0  04:00        7.15        7.15      -0.002
  jd12                 JUNCTION     0.686    1.499     0  04:00        5.37        11.7       1.185
  jd13                 JUNCTION     1.242    1.242     0  04:00        9.74        9.74       0.023
  jd14                 JUNCTION     1.457    1.643     0  04:00        11.4        12.9       0.106
  jd15                 JUNCTION     0.600    1.441     0  04:00        4.71        10.6       0.347
  jd16                 JUNCTION     0.645    2.638     0  04:00        5.07        19.8       0.125
  jd17                 JUNCTION     1.348    3.048     0  04:00        10.6        27.1       1.549
  jd18                 JUNCTION     1.069    1.558     0  04:00         8.4        12.2       0.176
  jd19                 JUNCTION     0.992    1.790     0  04:00         7.8        15.7       0.120
  jd20                 JUNCTION     0.825    1.065     0  04:00        6.47        10.9       0.199
  jd21                 JUNCTION     0.382    2.508     0  04:00           3        23.5       1.440
  jd22                 JUNCTION     0.674    1.437     0  04:00        5.28        11.6       0.694
  jd23                 JUNCTION     0.666    1.935     0  04:00        5.23        14.7       0.084
  jd24                 JUNCTION     1.094    1.094     0  04:00         8.6         8.6       0.016
  jd25                 JUNCTION     0.860    1.250     0  04:00        6.75        9.78       0.110
  jd26                 JUNCTION     1.252    2.020     0  04:00        9.82        16.3       0.089
  jd27                 JUNCTION     1.289    1.962     0  04:00        10.1        16.5       0.114
  jd28                 JUNCTION     1.757    2.336     0  04:00        13.8        19.1       0.691
  jd29                 JUNCTION     0.705    0.705     0  04:00        5.52        5.52      -0.018
  jd30                 JUNCTION     0.733    2.296     0  04:00        5.74        17.1       0.055
  jd31                 JUNCTION     0.490    1.089     0  01:42        3.84        8.42       5.583
  jd32                 JUNCTION     0.994    3.478     0  04:00        7.79        31.8       0.781
  jd33                 JUNCTION     0.979    1.686     0  04:00        7.72          13       0.041
  jd34                 JUNCTION     1.212    1.212     0  04:00        9.56        9.56       0.032
  jd35                 JUNCTION     1.105    3.044     0  04:00        8.69        28.1       0.469
  jd36                 JUNCTION     1.876    2.806     0  04:00        14.7        23.4       0.123
  jd37                 JUNCTION     1.973    1.973     0  04:00        15.5        15.5       0.096
  jd38                 JUNCTION     1.813    2.758     0  04:00        14.3          23       0.173
  jd39                 JUNCTION     1.256    3.807     0  04:00        9.88        38.1       1.344
  jd40                 JUNCTION     2.140    4.329     0  04:00        16.8        38.8       0.175
  jd41                 JUNCTION     1.503    5.131     0  04:00        11.8        45.5       4.883
  jd42                 JUNCTION     1.971    2.161     0  04:00        15.4          17       0.154
  jd43                 JUNCTION     2.213    4.011     0  04:00        17.5        31.2       0.210
  jd44                 JUNCTION     2.962    5.439     0  04:00        23.3        51.2       0.151
  jd45                 JUNCTION     1.201    3.427     0  04:00        9.42        34.5       0.936
  jd46                 JUNCTION     0.548    0.548     0  04:00         4.3         4.3       0.279
  jd47                 JUNCTION     1.768    1.768     0  04:00        13.9        13.9      -0.144
  jd48                 JUNCTION     0.489    0.489     0  04:00        3.91        3.91      -0.016
  jd49                 JUNCTION     2.402    2.402     0  04:00        18.8        18.8       0.096
  jd50                 JUNCTION     2.491    5.339     0  04:00        19.6          52       0.818
  jd51                 JUNCTION     0.521    2.398     0  04:00        4.11        18.9       7.829
  jd52                 JUNCTION     1.062    3.961     0  03:20        8.35        28.2       0.172
  jd53                 JUNCTION     0.591    2.569     0  03:14        4.63        23.1       0.081
  jd54                 JUNCTION     0.318    1.580     0  04:00        2.49        12.5       0.122
  jd55                 JUNCTION     0.579    2.014     0  04:00        4.54        15.4       5.016
  jd56                 JUNCTION     0.352    1.029     0  04:00        2.77        8.08       0.052
  jd59                 JUNCTION     0.349    1.732     0  04:00        2.74        13.2       6.198
  jd60                 JUNCTION     0.625    1.326     0  04:00        4.91        10.5       1.232
  jd61                 JUNCTION     0.701    0.789     0  04:00        5.56        6.26       0.039
  jd62                 JUNCTION     0.282    0.282     0  04:00        2.26        2.26      -0.015
  jd63                 JUNCTION     0.388    0.388     0  04:00        3.05        3.05      -0.014
  jd64                 JUNCTION     0.326    0.806     0  04:00        2.56        6.33       6.243
  jd65                 JUNCTION     5.580    5.580     0  04:00        43.8        43.8       0.078
  jd66                 JUNCTION     0.732    2.124     0  04:00        5.84        16.9       1.916
  jd69                 JUNCTION     1.354    1.392     0  04:00        10.8        11.1       0.031
  jd79                 JUNCTION     1.318    2.234     0  04:00        10.3        18.6       0.940
  jd80                 JUNCTION     1.464    2.072     0  04:00        11.5        15.4       0.399
  jd81                 JUNCTION     1.112    1.112     0  04:00        8.72        8.72       0.006
  jd83                 JUNCTION     1.159    1.408     0  04:00         9.2        11.7       0.721
  jd84                 JUNCTION     1.473    1.473     0  04:00        11.7        11.7       0.043
  jd85                 JUNCTION     0.335    0.548     0  04:00        2.64        4.34       1.985
  jd87                 JUNCTION     0.274    0.661     0  04:00        2.16        5.23       1.424
  jd89                 JUNCTION     0.320    0.320     0  04:00        2.51        2.51       0.028
  jd90                 JUNCTION     0.326    0.326     0  04:00        2.56        2.56      -0.018
  jd92                 JUNCTION     0.274    0.274     0  04:00        2.15        2.15      -0.007
  jd93                 JUNCTION     0.590    1.285     0  03:36        4.64          10       0.138
  jd94                 JUNCTION     0.038    0.705     0  03:36       0.295        5.39       0.116
  jd95                 JUNCTION     0.071    0.657     0  03:36       0.559        5.11       0.163
  jd96                 JUNCTION     0.534    0.713     0  04:00        4.29        5.69       1.681
  jd97                 JUNCTION     0.577    0.577     0  04:00        4.55        4.55       0.037
  jd98                 JUNCTION     0.322    0.322     0  04:00        2.53        2.53       0.038
  jd99                 JUNCTION     0.155    0.399     0  04:00        1.23        3.69       1.545
  jd101                JUNCTION     0.422    0.842     0  04:00        3.33        6.61      -0.084
  jd102                JUNCTION     0.420    0.420     0  04:00        3.29        3.29       0.097
  jd103                JUNCTION     0.289    0.289     0  04:00        2.28        2.28      -0.012
  jd106                JUNCTION     0.227    1.357     0  04:00        1.78        10.5       3.855
  jd107                JUNCTION     0.327    1.074     0  04:00        2.57        8.47       0.118
  jd108                JUNCTION     0.355    0.355     0  04:00        2.83        2.85       2.338
  jd109                JUNCTION     0.594    0.594     0  04:00        4.68        4.68       0.016
  jd110                JUNCTION     0.451    0.672     0  04:00        3.65        5.42       2.858
  jd111                JUNCTION     0.375    0.375     0  04:00        2.99        2.99      -0.025
  jd112                JUNCTION     0.441    1.225     0  04:00        3.46        9.73       0.028
  jd113                JUNCTION     0.296    0.296     0  04:00        2.38        2.38      -0.032
  jd114                JUNCTION     0.358    3.736     0  04:00        2.81        34.3       0.905
  jd117                JUNCTION     0.329    1.080     0  04:00        2.59        8.61       1.769
  jd118                JUNCTION     0.302    0.302     0  04:00        2.37        2.37      -0.021
  jd120                JUNCTION     0.377    0.377     0  04:00        2.96        2.96       0.001
  jd121                JUNCTION     0.465    0.465     0  04:00        3.68        3.68       0.020
  jd122                JUNCTION     1.105    4.118     0  04:00        8.67        38.3       1.468
  jd123                JUNCTION     1.136    3.399     0  04:00        8.94        35.2       1.991
  jd124                JUNCTION     1.639    2.712     0  04:00        12.9        27.8       0.205
  jd125                JUNCTION     1.593    3.268     0  04:00        12.5        33.9       0.077
  jd126                JUNCTION     2.313    3.115     0  04:00        18.2        25.1       0.397
  jd135                JUNCTION     0.588    0.588     0  04:00        4.62        4.62       0.008
  jd136                JUNCTION     0.487    0.784     0  04:00         3.9        6.28       0.105
  psk1                 OUTFALL      0.000    0.588     0  04:00           0        4.63       0.000
  psk2                 OUTFALL      0.000    1.726     0  04:00           0        12.7       0.000
  psk3                 OUTFALL      0.000    2.637     0  04:00           0        19.8       0.000
  psk4                 OUTFALL      0.000    0.000     0  00:00           0           0       0.000 ltr
  psk5                 OUTFALL      0.000    0.587     0  04:00           0        4.72       0.000
  psk6                 OUTFALL      0.000    0.480     0  04:00           0        3.86       0.000
  psk7                 OUTFALL      0.000    2.122     0  04:00           0        22.5       0.000
  psk8                 OUTFALL      0.000    0.000     0  00:00           0           0       0.000 ltr
  
  
  **********************
  Node Surcharge Summary
  **********************
  
  Surcharging occurs when water rises above the top of the highest conduit.
  ---------------------------------------------------------------------
                                               Max. Height   Min. Depth
                                   Hours       Above Crown    Below Rim
  Node                 Type      Surcharged         Meters       Meters
  ---------------------------------------------------------------------
  jd2                  JUNCTION        0.82          2.200        0.000
  jd3                  JUNCTION        7.42          2.200        0.000
  jd4                  JUNCTION        2.68          2.200        0.000
  jd8                  JUNCTION        3.76          2.200        0.000
  jd9                  JUNCTION        2.86          2.200        0.000
  jd10                 JUNCTION        7.50          2.400        0.000
  jd12                 JUNCTION        7.53          2.400        0.000
  jd14                 JUNCTION        0.60          2.400        0.000
  jd17                 JUNCTION        4.03          2.200        0.000
  jd18                 JUNCTION        0.60          2.000        0.000
  jd19                 JUNCTION        2.50          2.200        0.000
  jd21                 JUNCTION        7.43          2.200        0.000
  jd22                 JUNCTION        7.37          2.400        0.000
  jd26                 JUNCTION        0.69          2.400        0.000
  jd28                 JUNCTION        7.57          2.400        0.000
  jd31                 JUNCTION        7.28          2.200        0.000
  jd32                 JUNCTION        7.51          2.200        0.000
  jd35                 JUNCTION        7.64          2.400        0.000
  jd36                 JUNCTION        1.01          2.400        0.000
  jd37                 JUNCTION        0.94          2.400        0.000
  jd39                 JUNCTION        7.42          2.000        0.000
  jd40                 JUNCTION        2.39          2.200        0.000
  jd41                 JUNCTION        7.18          1.000        0.000
  jd43                 JUNCTION        2.20          2.200        0.000
  jd44                 JUNCTION        2.27          2.000        0.000
  jd45                 JUNCTION        7.45          2.000        0.000
  jd50                 JUNCTION        7.59          2.200        0.000
  jd51                 JUNCTION        7.15          1.350        0.000
  jd52                 JUNCTION        0.80          1.500        0.000
  jd53                 JUNCTION        0.92          1.800        0.000
  jd55                 JUNCTION        2.58          1.500        0.000
  jd59                 JUNCTION        7.10          1.500        0.000
  jd60                 JUNCTION        7.55          2.400        0.000
  jd64                 JUNCTION        7.11          1.800        0.000
  jd65                 JUNCTION        3.18          2.400        0.000
  jd66                 JUNCTION        7.49          2.200        0.000
  jd79                 JUNCTION        7.56          2.400        0.000
  jd80                 JUNCTION        4.59          2.400        0.000
  jd83                 JUNCTION        7.69          2.400        0.000
  jd85                 JUNCTION        7.52          2.400        0.000
  jd87                 JUNCTION        7.52          2.400        0.000
  jd93                 JUNCTION        1.01          2.200        0.000
  jd94                 JUNCTION        0.61          2.200        0.000
  jd95                 JUNCTION        0.45          2.185        0.015
  jd96                 JUNCTION        7.60          2.200        0.000
  jd97                 JUNCTION        0.43          2.200        0.000
  jd99                 JUNCTION        7.48          2.400        0.000
  jd106                JUNCTION        7.30          2.000        0.000
  jd108                JUNCTION        7.55          0.910        1.090
  jd110                JUNCTION        7.53          2.000        0.000
  jd114                JUNCTION        7.48          2.000        0.000
  jd117                JUNCTION        7.42          2.200        0.000
  jd122                JUNCTION        7.44          2.200        0.000
  jd123                JUNCTION        7.41          2.200        0.000
  jd124                JUNCTION        7.72          2.400        0.000
  jd125                JUNCTION        2.72          2.200        0.000
  jd126                JUNCTION        7.66          2.400        0.000
  
  
  *********************
  Node Flooding Summary
  *********************
  
  Flooding refers to all water that overflows a node, whether it ponds or not.
  --------------------------------------------------------------------------
                                                             Total   Maximum
                                 Maximum   Time of Max       Flood    Ponded
                        Hours       Rate    Occurrence      Volume     Depth
  Node                 Flooded       CMS   days hr:min    10^6 ltr    Meters
  --------------------------------------------------------------------------
  jd2                     0.01     0.203      0  03:18       0.003     0.000
  jd3                     7.42     2.766      0  04:00      24.370     0.000
  jd4                     2.45     0.908      0  04:00       4.120     0.000
  jd8                     2.42     0.244      0  01:36       0.987     0.000
  jd9                     2.41     0.353      0  04:00       2.267     0.000
  jd10                    7.50     0.782      0  04:00       6.057     0.000
  jd12                    7.53     1.499      0  04:00      11.557     0.000
  jd14                    0.01     0.130      0  03:27       0.001     0.000
  jd17                    2.82     2.219      0  04:00      12.584     0.000
  jd18                    0.52     0.352      0  03:29       0.054     0.000
  jd19                    1.13     0.723      0  04:00       2.250     0.000
  jd21                    7.30     2.508      0  04:00      22.883     0.000
  jd22                    1.17     0.614      0  04:00       1.902     0.000
  jd26                    0.64     0.237      0  03:22       0.226     0.000
  jd28                    7.57     2.336      0  04:00      18.941     0.000
  jd31                    0.01     0.924      0  01:43       0.010     0.000
  jd32                    7.51     3.478      0  04:00      31.581     0.000
  jd35                    7.64     3.044      0  04:00      27.963     0.000
  jd36                    0.92     0.699      0  04:00       1.830     0.000
  jd37                    0.88     0.488      0  04:00       1.207     0.000
  jd39                    7.42     3.807      0  04:00      37.558     0.000
  jd40                    2.33     1.768      0  04:00       7.523     0.000
  jd41                    7.18     5.131      0  04:00      43.393     0.000
  jd43                    2.16     2.179      0  04:00       8.261     0.000
  jd44                    1.14     1.539      0  04:00       4.664     0.000
  jd45                    7.45     3.426      0  04:00      34.146     0.000
  jd50                    7.59     5.339      0  04:00      51.624     0.000
  jd51                    7.15     2.398      0  04:00      17.540     0.000
  jd52                    0.01     1.452      0  03:20       0.023     0.000
  jd53                    0.05     0.489      0  03:16       0.016     0.000
  jd55                    0.78     1.951      0  04:00       4.685     0.000
  jd59                    7.10     1.732      0  04:00      12.455     0.000
  jd60                    7.55     1.326      0  04:00      10.366     0.000
  jd64                    0.01     0.184      0  01:54       0.003     0.000
  jd65                    3.11     4.487      0  04:00      25.074     0.000
  jd66                    7.49     2.124      0  04:00      16.620     0.000
  jd79                    3.80     1.993      0  04:00      13.993     0.000
  jd80                    3.20     1.914      0  04:00      11.338     0.000
  jd83                    7.69     1.408      0  04:00      11.642     0.000
  jd85                    7.52     0.548      0  04:00       4.256     0.000
  jd87                    7.52     0.661      0  04:00       5.156     0.000
  jd93                    0.43     0.114      0  03:36       0.117     0.000
  jd94                    0.01     0.125      0  03:30       0.001     0.000
  jd96                    7.60     0.713      0  04:00       5.595     0.000
  jd97                    0.01     0.057      0  03:36       0.000     0.000
  jd99                    7.48     0.399      0  04:00       3.630     0.000
  jd106                   7.30     1.357      0  04:00      10.075     0.000
  jd110                   7.53     0.672      0  04:00       5.267     0.000
  jd114                   7.45     3.736      0  04:00      33.917     0.000
  jd117                   0.01     0.747      0  01:34       0.012     0.000
  jd122                   7.43     4.118      0  04:00      37.568     0.000
  jd123                   6.69     3.085      0  04:00      26.307     0.000
  jd124                   7.72     2.712      0  04:00      27.759     0.000
  jd125                   2.16     0.882      0  04:00       3.248     0.000
  jd126                   7.66     3.115      0  04:00      25.026     0.000
  
  
  ***********************
  Outfall Loading Summary
  ***********************
  
  -----------------------------------------------------------
                         Flow       Avg       Max       Total
                         Freq      Flow      Flow      Volume
  Outfall Node           Pcnt       CMS       CMS    10^6 ltr
  -----------------------------------------------------------
  psk1                  96.84     0.234     0.588       4.632
  psk2                  96.81     0.646     1.726      12.691
  psk3                  96.84     1.004     2.637      19.820
  psk4                   0.00     0.000     0.000       0.000
  psk5                  96.84     0.237     0.587       4.721
  psk6                  96.79     0.194     0.480       3.858
  psk7                  96.81     1.070     2.122      22.450
  psk8                   0.00     0.000     0.000       0.000
  -----------------------------------------------------------
  System                72.62     3.384     0.000      68.173
  
  
  ********************
  Link Flow Summary
  ********************
  
  -----------------------------------------------------------------------------
                                 Maximum  Time of Max   Maximum    Max/    Max/
                                  |Flow|   Occurrence   |Veloc|    Full    Full
  Link                 Type          CMS  days hr:min     m/sec    Flow   Depth
  -----------------------------------------------------------------------------
  GQ1                  CONDUIT     0.336     0  04:00      1.96    0.88    0.60
  GQ2                  CONDUIT     1.102     0  04:00      2.62    0.52    0.53
  GQ3                  CONDUIT     0.588     0  04:00      6.12    0.02    0.10
  GQ4                  CONDUIT     0.510     0  03:43      1.80    1.00    1.00
  GQ5                  CONDUIT     1.199     0  04:00      2.38    0.99    1.00
  GQ6                  CONDUIT     0.317     0  04:00      1.14    0.14    0.63
  GQ7                  CONDUIT     1.675     0  03:48      3.63    1.00    1.00
  GQ8                  CONDUIT     0.646     0  04:00      1.53    0.62    0.78
  GQ9                  CONDUIT     1.754     0  04:00      4.15    0.62    0.78
  GQ10                 CONDUIT     1.134     0  04:52      4.10    1.04    1.00
  GQ11                 CONDUIT     0.190     0  04:00      1.75    0.20    0.44
  GQ12                 CONDUIT     0.225     0  04:00      1.12    0.24    0.67
  GQ13                 CONDUIT     0.146     0  04:00      0.49    0.07    0.59
  GQ14                 CONDUIT     0.074     0  04:00      1.02    0.10    0.20
  GQ15                 CONDUIT     0.180     0  04:00      4.29    0.73    0.57
  GQ16                 CONDUIT     1.563     0  04:00      4.04    0.75    0.50
  GQ17                 CONDUIT     0.356     0  04:00      1.73    0.11    0.43
  GQ18                 CONDUIT     1.073     0  04:00      2.50    4.84    0.82
  GQ19                 CONDUIT     0.477     0  04:00      2.09    0.06    0.33
  GQ20                 CONDUIT     0.104     0  04:00      0.43    0.06    0.58
  GQ21                 CONDUIT     0.384     0  04:00      1.31    0.12    0.62
  GQ22                 CONDUIT     0.390     0  04:00      1.74    0.12    0.33
  GQ23                 CONDUIT     0.765     0  04:00      2.26    0.38    0.45
  GQ24                 CONDUIT     1.170     0  04:00      2.74    0.58    0.79
  GQ25                 CONDUIT     0.707     0  04:00      3.80    0.79    0.63
  GQ26                 CONDUIT     0.503     0  04:00      2.60    0.59    0.67
  GQ27                 CONDUIT     0.764     0  04:00      2.88    0.77    0.89
  GQ28                 CONDUIT     0.267     0  04:00      0.72    0.29    0.70
  GQ29                 CONDUIT     1.035     0  04:00      2.06    0.48    1.00
  GQ30                 CONDUIT     0.824     0  03:37      2.91    1.00    1.00
  GQ31                 CONDUIT     0.505     0  04:00      1.97    0.68    0.85
  GQ32                 CONDUIT     0.673     0  04:00      2.98    1.08    0.82
  GQ33                 CONDUIT     1.434     0  03:19      5.07    1.00    1.00
  GQ34                 CONDUIT     0.390     0  04:00      1.64    0.61    0.78
  GQ35                 CONDUIT     0.579     0  03:10      2.13    1.07    1.00
  GQ36                 CONDUIT     0.953     0  03:12      3.37    1.18    1.00
  GQ37                 CONDUIT     0.398     0  04:00      1.60    0.57    0.82
  GQ38                 CONDUIT     0.181     0  04:00      0.87    0.26    0.69
  GQ39                 CONDUIT     0.782     0  03:50      2.76    1.00    1.00
  GQ40                 CONDUIT     0.563     0  04:02      2.44    0.70    0.82
  GQ41                 CONDUIT     1.192     0  04:00      1.62    0.55    0.88
  GQ42                 CONDUIT     1.359     0  03:43      2.70    1.00    1.00
  GQ43                 CONDUIT     2.311     0  03:14      4.70    1.03    1.00
  GQ44                 CONDUIT     0.946     0  02:15      1.88    1.00    1.00
  GQ45                 CONDUIT     0.798     0  04:00      2.14    0.32    0.70
  GQ46                 CONDUIT     1.068     0  03:19      2.12    1.00    1.00
  GQ47                 CONDUIT     0.165     0  04:00      0.87    0.16    0.63
  GQ48                 CONDUIT     0.164     0  04:00      0.87    0.16    0.63
  GQ49                 CONDUIT     0.650     0  04:00      3.24    0.24    0.67
  GQ50                 CONDUIT     0.187     0  04:00      1.02    0.24    0.67
  GQ51                 CONDUIT     0.842     0  04:00      3.07    1.28    0.93
  GQ52                 CONDUIT     0.545     0  04:00      1.24    0.73    0.82
  GQ53                 CONDUIT     2.225     0  03:35      2.83    1.00    1.00
  GQ54                 CONDUIT     0.401     0  04:00      1.89    0.34    0.70
  GQ55                 CONDUIT     0.300     0  04:00      1.53    0.20    0.65
  GQ56                 CONDUIT     1.970     0  01:58      4.19    1.08    1.00
  GQ57                 CONDUIT     0.574     0  04:00      1.50    0.37    0.71
  GQ58                 CONDUIT     1.195     0  04:00      3.12    0.37    0.71
  GQ59                 CONDUIT     1.203     0  02:35      2.39    1.00    1.00
  GQ60                 CONDUIT     1.899     0  03:20      1.24    0.46    1.00
  GQ61                 CONDUIT     0.258     0  04:00      0.51    0.03    0.56
  GQ62                 CONDUIT     0.538     0  04:00      0.63    0.05    0.58
  GQ63                 CONDUIT     1.230     0  04:00      1.27    0.04    0.57
  GQ64                 CONDUIT     0.087     0  04:00      1.31    0.07    0.29
  GQ65                 CONDUIT     0.038     0  04:00      0.34    0.07    0.42
  GQ66                 CONDUIT     0.153     0  04:00      0.70    0.05    0.57
  GQ67                 CONDUIT     0.806     0  04:00      0.71    0.56    1.00
  GQ68                 CONDUIT     0.784     0  04:00      1.40    0.25    0.67
  GQ69                 CONDUIT     1.392     0  04:00      3.45    0.50    0.75
  GQ70                 CONDUIT     0.480     0  04:00      7.93    0.07    0.18
  GQ71                 CONDUIT     0.587     0  04:00      5.79    0.14    0.26
  GQ72                 CONDUIT     2.122     0  04:00      5.35    0.51    0.50
  GQ73                 CONDUIT     1.726     0  04:00     12.94    0.11    0.23
  GQ74                 CONDUIT     0.314     0  04:00      1.34    0.06    0.35
  GQ75                 CONDUIT     0.388     0  04:00      0.77    0.11    0.61
  GQ76                 CONDUIT     2.637     0  04:00      6.08    0.57    0.54
  GQ77                 CONDUIT     0.000     0  00:00      0.00    0.00    0.26
  GQ78                 CONDUIT     0.916     0  03:48      3.24    1.00    1.00
  GQ79                 CONDUIT     0.241     0  04:00      1.08    0.52    0.76
  GQ80                 CONDUIT     0.608     0  03:42      2.15    1.00    1.00
  GQ81                 CONDUIT     0.602     0  01:37      2.14    3.81    1.00
  GQ82                 CONDUIT     0.535     0  04:00      2.49    0.37    0.71
  GQ83                 CONDUIT     0.577     0  04:00      2.94    0.37    0.66
  GQ84                 CONDUIT     1.224     0  04:00      4.58    0.97    0.90
  GQ85                 CONDUIT     0.249     0  04:00      0.93    0.43    0.90
  GQ86                 CONDUIT     0.157     0  04:00      0.91    0.07    0.59
  GQ87                 CONDUIT     0.056     0  04:00      0.32    0.08    0.60
  GQ88                 CONDUIT     0.387     0  04:00      1.83    0.34    0.70
  GQ89                 CONDUIT     0.320     0  04:00      1.45    0.42    0.73
  GQ90                 CONDUIT     0.326     0  04:00      1.55    0.33    0.70
  GQ91                 CONDUIT     0.274     0  04:00      1.30    0.34    0.70
  GQ92                 CONDUIT     0.667     0  03:36      1.79    0.96    1.00
  GQ93                 CONDUIT     0.755     0  04:11      1.72    0.65    1.00
  GQ94                 CONDUIT     1.202     0  04:00      2.39    1.43    1.00
  GQ95                 CONDUIT     0.178     0  04:00      0.60    0.05    0.57
  GQ96                 CONDUIT     0.586     0  03:36      1.37    1.00    1.00
  GQ97                 CONDUIT     0.322     0  04:00      1.99    0.58    0.56
  GQ98                 CONDUIT     0.245     0  04:00      1.03    0.35    0.78
  GQ99                 CONDUIT     0.584     0  04:00      0.84    0.03    0.56
  GQ100                CONDUIT     0.420     0  04:00      2.94    0.72    0.51
  GQ101                CONDUIT     0.289     0  04:00      1.47    0.22    0.66
  GQ102                CONDUIT     1.182     0  04:00      3.11    0.36    0.71
  GQ103                CONDUIT     0.484     0  04:00      1.88    0.74    0.85
  GQ104                CONDUIT     1.032     0  04:00      4.14    0.75    0.82
  GQ105                CONDUIT     0.936     0  01:35      1.86    2.97    1.00
  GQ106                CONDUIT     0.320     0  04:00      1.53    0.32    0.69
  GQ107                CONDUIT     1.114     0  03:41      3.94    1.00    1.00
  GQ108                CONDUIT     0.829     0  02:27      1.65    1.00    1.00
  GQ109                CONDUIT     0.236     0  04:00      1.30    0.32    0.69
  GQ110                CONDUIT     0.391     0  04:00      0.92    0.06    0.58
  GQ111                CONDUIT     0.352     0  04:00      1.68    0.32    0.69
  GQ112                CONDUIT     1.074     0  04:00      3.04    0.19    0.35
  GQ113                CONDUIT     0.594     0  04:00      3.89    0.45    0.53
  GQ114                CONDUIT     0.355     0  04:00      0.64    0.15    0.67
  GQ115                CONDUIT     0.154     0  04:00      0.97    0.02    0.20
  GQ116                CONDUIT     0.221     0  04:00      0.49    0.03    0.56
  GQ117                CONDUIT     0.784     0  04:00      4.45    0.49    0.38
  GQ118                CONDUIT     0.296     0  04:00      1.75    0.10    0.39
  GQ119                CONDUIT     2.302     0  03:23      4.58    1.00    1.00
  GQ120                CONDUIT     0.000     0  00:00      0.00    0.00    0.50
  GQ121                CONDUIT     1.080     0  04:00      2.15    0.76    1.00
  GQ122                CONDUIT     0.449     0  04:00      1.87    0.08    0.60
  GQ123                CONDUIT     0.302     0  04:00      1.61    0.15    0.63
  GQ124                CONDUIT     0.188     0  04:00      1.01    0.08    0.40
  GQ125                CONDUIT     0.377     0  04:00      1.71    0.42    0.73
  GQ126                CONDUIT     0.465     0  04:00      2.09    0.44    0.73
  GQ127                CONDUIT     0.824     0  04:12      1.70    1.05    1.00
  GQ128                CONDUIT     1.580     0  04:00      2.62    0.34    0.70
  GQ129                CONDUIT     1.313     0  03:29      2.61    1.00    1.00
  GQ130                CONDUIT     1.073     0  02:13      3.79    1.00    1.00
  GQ131                CONDUIT     0.802     0  04:00      2.84    0.93    1.00
  
  
  ***************************
  Flow Classification Summary
  ***************************
  
  -------------------------------------------------------------------------------------
                      Adjusted    ---------- Fraction of Time in Flow Class ---------- 
                       /Actual         Up    Down  Sub   Sup   Up    Down  Norm  Inlet 
  Conduit               Length    Dry  Dry   Dry   Crit  Crit  Crit  Crit  Ltd   Ctrl  
  -------------------------------------------------------------------------------------
  GQ1                     1.00   0.03  0.00  0.00  0.01  0.95  0.00  0.00  0.01  0.00
  GQ2                     1.00   0.03  0.00  0.00  0.03  0.94  0.00  0.00  0.89  0.00
  GQ3                     1.00   0.03  0.00  0.00  0.00  0.97  0.00  0.00  0.10  0.00
  GQ4                     1.00   0.03  0.00  0.00  0.96  0.01  0.00  0.00  0.48  0.00
  GQ5                     1.00   0.03  0.00  0.00  0.97  0.00  0.00  0.00  0.65  0.00
  GQ6                     1.00   0.03  0.00  0.00  0.97  0.00  0.00  0.00  0.89  0.00
  GQ7                     1.00   0.03  0.00  0.00  0.48  0.49  0.00  0.00  0.06  0.00
  GQ8                     1.00   0.03  0.00  0.00  0.97  0.00  0.00  0.00  0.87  0.00
  GQ9                     1.00   0.03  0.00  0.00  0.53  0.44  0.00  0.00  0.89  0.00
  GQ10                    1.00   0.03  0.00  0.00  0.84  0.13  0.00  0.00  0.52  0.00
  GQ11                    1.00   0.03  0.00  0.00  0.39  0.57  0.00  0.00  0.88  0.00
  GQ12                    1.00   0.03  0.00  0.00  0.96  0.01  0.00  0.00  0.89  0.00
  GQ13                    1.00   0.03  0.00  0.00  0.97  0.00  0.00  0.00  0.89  0.00
  GQ14                    1.00   0.03  0.00  0.00  0.97  0.00  0.00  0.00  0.00  0.00
  GQ15                    1.00   0.03  0.00  0.00  0.00  0.97  0.00  0.00  0.01  0.00
  GQ16                    1.00   0.03  0.00  0.00  0.00  0.97  0.00  0.00  0.00  0.00
  GQ17                    1.00   0.03  0.00  0.00  0.73  0.24  0.00  0.00  0.89  0.00
  GQ18                    1.00   0.03  0.00  0.00  0.73  0.24  0.00  0.00  0.03  0.00
  GQ19                    1.00   0.03  0.00  0.00  0.45  0.52  0.00  0.00  0.89  0.00
  GQ20                    1.00   0.03  0.00  0.00  0.97  0.00  0.00  0.00  0.89  0.00
  GQ21                    1.00   0.03  0.00  0.00  0.57  0.39  0.00  0.00  0.89  0.00
  GQ22                    1.00   0.03  0.00  0.00  0.03  0.94  0.00  0.00  0.89  0.00
  GQ23                    1.00   0.03  0.00  0.00  0.00  0.96  0.00  0.00  0.15  0.00
  GQ24                    1.00   0.03  0.00  0.00  0.80  0.17  0.00  0.00  0.79  0.00
  GQ25                    1.00   0.03  0.00  0.00  0.00  0.97  0.00  0.00  0.01  0.00
  GQ26                    1.00   0.03  0.00  0.00  0.00  0.97  0.00  0.00  0.85  0.00
  GQ27                    1.00   0.03  0.00  0.00  0.70  0.27  0.00  0.00  0.64  0.00
  GQ28                    1.00   0.03  0.00  0.00  0.97  0.00  0.00  0.00  0.77  0.00
  GQ29                    1.00   0.03  0.00  0.00  0.97  0.00  0.00  0.00  0.06  0.00
  GQ30                    1.00   0.03  0.00  0.00  0.95  0.02  0.00  0.00  0.04  0.00
  GQ31                    1.00   0.03  0.00  0.00  0.97  0.00  0.00  0.00  0.78  0.00
  GQ32                    1.00   0.03  0.00  0.00  0.00  0.96  0.00  0.00  0.01  0.00
  GQ33                    1.00   0.03  0.00  0.00  0.61  0.36  0.00  0.00  0.62  0.00
  GQ34                    1.00   0.03  0.00  0.00  0.95  0.01  0.00  0.00  0.89  0.00
  GQ35                    1.00   0.03  0.00  0.00  0.25  0.72  0.00  0.00  0.65  0.00
  GQ36                    1.00   0.03  0.00  0.00  0.21  0.76  0.00  0.00  0.75  0.00
  GQ37                    1.00   0.03  0.00  0.00  0.97  0.00  0.00  0.00  0.76  0.00
  GQ38                    1.00   0.03  0.00  0.00  0.97  0.00  0.00  0.00  0.78  0.00
  GQ39                    1.00   0.03  0.00  0.00  0.94  0.03  0.00  0.00  0.76  0.00
  GQ40                    1.00   0.03  0.00  0.00  0.15  0.82  0.00  0.00  0.81  0.00
  GQ41                    1.00   0.03  0.00  0.00  0.97  0.00  0.00  0.00  0.62  0.00
  GQ42                    1.00   0.03  0.00  0.00  0.97  0.00  0.00  0.00  0.58  0.00
  GQ43                    1.00   0.03  0.00  0.00  0.22  0.75  0.00  0.00  0.75  0.00
  GQ44                    1.00   0.03  0.00  0.00  0.97  0.00  0.00  0.00  0.48  0.00
  GQ45                    1.00   0.03  0.00  0.00  0.53  0.44  0.00  0.00  0.89  0.00
  GQ46                    1.00   0.03  0.00  0.00  0.59  0.38  0.00  0.00  0.51  0.00
  GQ47                    1.00   0.03  0.00  0.00  0.97  0.00  0.00  0.00  0.89  0.00
  GQ48                    1.00   0.03  0.00  0.00  0.97  0.00  0.00  0.00  0.89  0.00
  GQ49                    1.00   0.03  0.00  0.00  0.53  0.44  0.00  0.00  0.89  0.00
  GQ50                    1.00   0.03  0.00  0.00  0.97  0.00  0.00  0.00  0.89  0.00
  GQ51                    1.00   0.03  0.00  0.00  0.02  0.95  0.00  0.00  0.66  0.00
  GQ52                    1.00   0.03  0.00  0.00  0.97  0.00  0.00  0.00  0.85  0.00
  GQ53                    1.00   0.03  0.00  0.00  0.97  0.00  0.00  0.00  0.58  0.00
  GQ54                    1.00   0.03  0.00  0.00  0.97  0.00  0.00  0.00  0.89  0.00
  GQ55                    1.00   0.03  0.00  0.00  0.96  0.00  0.00  0.00  0.89  0.00
  GQ56                    1.00   0.03  0.00  0.00  0.43  0.53  0.00  0.00  0.54  0.00
  GQ57                    1.00   0.03  0.00  0.00  0.97  0.00  0.00  0.00  0.89  0.00
  GQ58                    1.00   0.03  0.00  0.00  0.74  0.23  0.00  0.00  0.89  0.00
  GQ59                    1.00   0.03  0.00  0.00  0.97  0.00  0.00  0.00  0.59  0.00
  GQ60                    1.00   0.03  0.00  0.00  0.97  0.00  0.00  0.00  0.08  0.00
  GQ61                    1.00   0.03  0.00  0.00  0.97  0.00  0.00  0.00  0.89  0.00
  GQ62                    1.00   0.03  0.00  0.00  0.96  0.00  0.00  0.00  0.89  0.00
  GQ63                    1.00   0.03  0.00  0.00  0.95  0.01  0.00  0.00  0.89  0.00
  GQ64                    1.00   0.03  0.00  0.00  0.38  0.59  0.00  0.00  0.89  0.00
  GQ65                    1.00   0.03  0.00  0.00  0.97  0.00  0.00  0.00  0.89  0.00
  GQ66                    1.00   0.03  0.00  0.00  0.96  0.01  0.00  0.00  0.89  0.00
  GQ67                    1.00   0.03  0.00  0.00  0.97  0.00  0.00  0.00  0.03  0.00
  GQ68                    1.00   0.03  0.00  0.00  0.97  0.00  0.00  0.00  0.89  0.00
  GQ69                    1.00   0.03  0.00  0.00  0.71  0.25  0.00  0.00  0.89  0.00
  GQ70                    1.00   0.03  0.00  0.00  0.00  0.97  0.00  0.00  0.00  0.00
  GQ71                    1.00   0.03  0.00  0.00  0.00  0.97  0.00  0.00  0.12  0.00
  GQ72                    1.00   0.03  0.00  0.00  0.00  0.97  0.00  0.00  0.24  0.00
  GQ73                    1.00   0.03  0.00  0.00  0.00  0.97  0.00  0.00  0.00  0.00
  GQ74                    1.00   0.03  0.00  0.00  0.90  0.07  0.00  0.00  0.89  0.00
  GQ75                    1.00   0.03  0.00  0.00  0.97  0.00  0.00  0.00  0.89  0.00
  GQ76                    1.00   0.03  0.00  0.00  0.00  0.97  0.00  0.00  0.17  0.00
  GQ77                    1.00   0.03  0.97  0.00  0.00  0.00  0.00  0.00  0.00  0.00
  GQ78                    1.00   0.03  0.00  0.00  0.72  0.25  0.00  0.00  0.60  0.00
  GQ79                    1.00   0.03  0.00  0.00  0.97  0.00  0.00  0.00  0.05  0.00
  GQ80                    1.00   0.03  0.00  0.00  0.97  0.00  0.00  0.00  0.56  0.00
  GQ81                    1.00   0.03  0.00  0.00  0.97  0.00  0.00  0.00  0.00  0.00
  GQ82                    1.00   0.03  0.00  0.00  0.74  0.23  0.00  0.00  0.88  0.00
  GQ83                    1.00   0.03  0.00  0.00  0.00  0.97  0.00  0.00  0.89  0.00
  GQ84                    1.00   0.03  0.00  0.00  0.09  0.87  0.00  0.00  0.89  0.00
  GQ85                    1.00   0.03  0.00  0.00  0.97  0.00  0.00  0.00  0.57  0.00
  GQ86                    1.00   0.03  0.00  0.00  0.96  0.00  0.00  0.00  0.89  0.00
  GQ87                    1.00   0.03  0.00  0.00  0.97  0.00  0.00  0.00  0.89  0.00
  GQ88                    1.00   0.03  0.00  0.00  0.97  0.00  0.00  0.00  0.89  0.00
  GQ89                    1.00   0.03  0.00  0.00  0.96  0.01  0.00  0.00  0.89  0.00
  GQ90                    1.00   0.03  0.00  0.00  0.95  0.02  0.00  0.00  0.89  0.00
  GQ91                    1.00   0.03  0.00  0.00  0.96  0.01  0.00  0.00  0.89  0.00
  GQ92                    1.00   0.03  0.00  0.00  0.90  0.07  0.00  0.00  0.03  0.00
  GQ93                    1.00   0.03  0.00  0.00  0.97  0.00  0.00  0.00  0.79  0.00
  GQ94                    1.00   0.03  0.00  0.00  0.55  0.42  0.00  0.00  0.03  0.00
  GQ95                    1.00   0.03  0.00  0.00  0.97  0.00  0.00  0.00  0.89  0.00
  GQ96                    1.00   0.03  0.00  0.00  0.96  0.00  0.00  0.00  0.54  0.00
  GQ97                    1.00   0.03  0.00  0.00  0.00  0.97  0.00  0.00  0.55  0.00
  GQ98                    1.00   0.03  0.00  0.00  0.97  0.00  0.00  0.00  0.60  0.00
  GQ99                    1.00   0.03  0.00  0.00  0.96  0.01  0.00  0.00  0.89  0.00
  GQ100                   1.00   0.03  0.00  0.00  0.00  0.97  0.00  0.00  0.01  0.00
  GQ101                   1.00   0.03  0.00  0.00  0.96  0.01  0.00  0.00  0.89  0.00
  GQ102                   1.00   0.03  0.00  0.00  0.74  0.23  0.00  0.00  0.89  0.00
  GQ103                   1.00   0.03  0.00  0.00  0.97  0.00  0.00  0.00  0.78  0.00
  GQ104                   1.00   0.03  0.00  0.00  0.48  0.48  0.00  0.00  0.89  0.00
  GQ105                   1.00   0.03  0.00  0.00  0.97  0.00  0.00  0.00  0.04  0.00
  GQ106                   1.00   0.03  0.00  0.00  0.96  0.01  0.00  0.00  0.89  0.00
  GQ107                   1.00   0.03  0.00  0.00  0.61  0.36  0.00  0.00  0.77  0.00
  GQ108                   1.00   0.03  0.00  0.00  0.97  0.00  0.00  0.00  0.07  0.00
  GQ109                   1.00   0.03  0.00  0.00  0.91  0.06  0.00  0.00  0.88  0.00
  GQ110                   1.00   0.03  0.00  0.00  0.96  0.01  0.00  0.00  0.89  0.00
  GQ111                   1.00   0.03  0.00  0.00  0.96  0.01  0.00  0.00  0.89  0.00
  GQ112                   1.00   0.03  0.00  0.00  0.00  0.97  0.00  0.00  0.87  0.00
  GQ113                   1.00   0.03  0.00  0.00  0.00  0.97  0.00  0.00  0.87  0.00
  GQ114                   1.00   0.03  0.00  0.00  0.97  0.00  0.00  0.00  0.05  0.00
  GQ115                   1.00   0.03  0.00  0.00  0.95  0.02  0.00  0.00  0.89  0.00
  GQ116                   1.00   0.03  0.00  0.00  0.97  0.00  0.00  0.00  0.89  0.00
  GQ117                   1.00   0.03  0.00  0.00  0.00  0.97  0.00  0.00  0.01  0.00
  GQ118                   1.00   0.03  0.00  0.00  0.37  0.60  0.00  0.00  0.89  0.00
  GQ119                   1.00   0.03  0.00  0.00  0.70  0.27  0.00  0.00  0.60  0.00
  GQ120                   1.00   0.03  0.04  0.00  0.93  0.00  0.00  0.00  0.00  0.00
  GQ121                   1.00   0.03  0.00  0.00  0.96  0.01  0.00  0.00  0.05  0.00
  GQ122                   1.00   0.03  0.00  0.00  0.93  0.03  0.00  0.00  0.89  0.00
  GQ123                   1.00   0.03  0.00  0.00  0.93  0.04  0.00  0.00  0.89  0.00
  GQ124                   1.00   0.03  0.00  0.00  0.96  0.01  0.00  0.00  0.89  0.00
  GQ125                   1.00   0.03  0.00  0.00  0.96  0.01  0.00  0.00  0.89  0.00
  GQ126                   1.00   0.03  0.00  0.00  0.83  0.14  0.00  0.00  0.89  0.00
  GQ127                   1.00   0.03  0.00  0.00  0.97  0.00  0.00  0.00  0.54  0.00
  GQ128                   1.00   0.03  0.00  0.00  0.25  0.72  0.00  0.00  0.83  0.00
  GQ129                   1.00   0.03  0.00  0.00  0.97  0.00  0.00  0.00  0.52  0.00
  GQ130                   1.00   0.03  0.00  0.00  0.89  0.07  0.00  0.00  0.52  0.00
  GQ131                   1.00   0.03  0.00  0.00  0.90  0.07  0.00  0.00  0.68  0.00
  
  
  *************************
  Conduit Surcharge Summary
  *************************
  
  ----------------------------------------------------------------------------
                                                           Hours        Hours 
                         --------- Hours Full --------   Above Full   Capacity
  Conduit                Both Ends  Upstream  Dnstream   Normal Flow   Limited
  ----------------------------------------------------------------------------
  GQ4                         2.99      2.99      7.46      0.01         0.01
  GQ5                         0.82      0.82      7.42      0.01         0.01
  GQ6                         0.01      0.01      0.82      0.01         0.01
  GQ7                         2.45      2.45      2.72      0.01         0.01
  GQ8                         0.01      0.01      2.45      0.01         0.01
  GQ9                         0.01      0.01      7.59      0.01         0.01
  GQ10                        3.18      3.18      7.62      0.07         0.01
  GQ12                        0.01      0.01      5.18      0.01         0.01
  GQ13                        0.01      0.01      2.68      0.01         0.01
  GQ18                        0.01      0.01      3.76      4.29         0.01
  GQ20                        0.01      0.01      0.60      0.01         0.01
  GQ21                        0.01      0.01      0.60      0.01         0.01
  GQ24                        0.01      0.01      7.51      0.01         0.01
  GQ27                        0.01      0.01      7.37      0.01         0.01
  GQ28                        0.01      0.01      7.43      0.01         0.01
  GQ29                        7.28      7.28      7.43      0.01         0.01
  GQ30                        7.37      7.37      7.47      0.01         0.01
  GQ31                        0.01      0.01      7.64      0.01         0.01
  GQ32                        0.01      1.01      0.01      0.94         0.01
  GQ33                        1.01      1.01      7.64      0.01         0.01
  GQ34                        0.01      0.01      1.01      0.01         0.01
  GQ35                        0.94      0.94      1.01      0.05         0.01
  GQ36                        0.94      0.94      0.98      1.03         0.93
  GQ37                        0.01      0.01      7.57      0.01         0.01
  GQ38                        0.01      0.01      7.57      0.01         0.01
  GQ39                        0.69      0.69      5.18      0.01         0.01
  GQ40                        0.01      0.01      0.69      0.01         0.01
  GQ41                        0.01      0.01      7.42      0.01         0.01
  GQ42                        2.39      2.39      7.45      0.01         0.01
  GQ43                        1.05      1.05      2.39      0.08         0.01
  GQ44                        2.86      2.86      3.76      0.01         0.01
  GQ45                        0.01      0.01      2.50      0.01         0.01
  GQ46                        2.50      2.50      2.86      0.01         0.01
  GQ47                        0.01      0.01      7.50      0.01         0.01
  GQ48                        0.01      0.01      7.53      0.01         0.01
  GQ49                        0.01      0.01      7.53      0.01         0.01
  GQ50                        0.01      0.01      0.60      0.01         0.01
  GQ51                        0.01      0.60      0.01      0.79         0.01
  GQ52                        0.01      0.01      7.28      0.01         0.01
  GQ53                        2.27      2.27      7.45      0.01         0.01
  GQ54                        0.01      0.01      7.55      0.01         0.01
  GQ55                        0.01      0.01      7.55      0.01         0.01
  GQ56                        2.20      2.20      2.45      1.25         1.02
  GQ57                        0.01      0.01      2.20      0.01         0.01
  GQ58                        0.01      0.01      7.38      0.01         0.01
  GQ59                        2.39      2.39      7.38      0.01         0.01
  GQ60                        0.80      0.80      2.58      0.01         0.01
  GQ61                        0.01      0.01      7.10      0.01         0.01
  GQ62                        0.01      0.01      7.15      0.01         0.01
  GQ63                        0.01      0.01      7.18      0.01         0.01
  GQ66                        0.01      0.01      7.20      0.01         0.01
  GQ67                        7.11      7.11      7.15      0.01         0.01
  GQ68                        0.01      0.01      7.30      0.01         0.01
  GQ69                        0.01      0.01      7.49      0.01         0.01
  GQ75                        0.01      0.01      7.30      0.01         0.01
  GQ78                        1.01      1.01      7.56      0.01         0.01
  GQ79                        0.01      0.01      7.56      0.01         0.01
  GQ80                        1.01      1.01      4.59      0.01         0.01
  GQ81                        4.47      4.59      5.18      3.92         0.92
  GQ82                        0.01      0.01      5.18      0.01         0.01
  GQ84                        0.01      0.01      2.52      0.01         0.01
  GQ85                        0.01      0.01      7.69      0.01         0.01
  GQ86                        0.01      0.01      7.52      0.01         0.01
  GQ87                        0.01      0.01      7.52      0.01         0.01
  GQ88                        0.01      0.01      7.52      0.01         0.01
  GQ89                        0.01      0.01      7.37      0.01         0.01
  GQ90                        0.01      0.01      7.29      0.01         0.01
  GQ91                        0.01      0.01      7.41      0.01         0.01
  GQ92                        0.45      0.45      0.61      0.01         0.01
  GQ93                        0.61      0.61      1.01      0.01         0.01
  GQ94                        1.01      1.01      1.05      1.06         0.96
  GQ95                        0.01      0.01      7.60      0.01         0.01
  GQ96                        0.43      0.43      0.45      0.01         0.01
  GQ98                        0.01      0.01      7.48      0.01         0.01
  GQ99                        0.01      0.01      7.18      0.01         0.01
  GQ101                       0.01      0.01      7.42      0.01         0.01
  GQ102                       0.01      0.01      7.44      0.01         0.01
  GQ103                       0.01      0.01      7.49      0.01         0.01
  GQ104                       0.01      0.01      7.49      0.01         0.01
  GQ105                       7.41      7.41      7.44      6.28         0.01
  GQ106                       0.01      0.01      7.42      0.01         0.01
  GQ107                       0.69      0.69      7.42      0.01         0.01
  GQ108                       4.03      4.03      7.41      0.01         0.01
  GQ109                       0.01      0.01      0.69      0.01         0.01
  GQ110                       0.01      0.01      7.30      0.01         0.01
  GQ111                       0.01      0.01      7.41      0.01         0.01
  GQ114                       0.01      0.01      7.55      0.01         0.01
  GQ116                       0.01      0.01      7.53      0.01         0.01
  GQ119                       1.14      1.14      7.50      0.01         0.01
  GQ120                       0.01      0.01      7.48      0.01         0.01
  GQ121                       7.42      7.42      7.50      0.01         0.01
  GQ122                       0.01      0.01      7.42      0.01         0.01
  GQ123                       0.01      0.01      7.43      0.01         0.01
  GQ125                       0.01      0.01      7.41      0.01         0.01
  GQ126                       0.01      0.01      7.42      0.01         0.01
  GQ127                       1.05      1.05      1.14      0.13         0.08
  GQ128                       0.01      0.01      0.92      0.01         0.01
  GQ129                       2.72      2.72      7.51      0.01         0.01
  GQ130                       2.86      2.86      7.72      0.01         0.01
  GQ131                       0.60      0.60      7.66      0.01         0.01
  

  Analysis begun on:  Sat Mar 25 16:18:40 2023
  Analysis ended on:  Sat Mar 25 16:18:42 2023
  Total elapsed time: 00:00:02