
  OWA STORM WATER MANAGEMENT MODEL - VERSION v5.1.14 (OWA 2022-07-31)
  --------------------------------------------------------------

  INP file created by DSDAConvertToSwmmTools 
  version 0.0.1 EcoVista 
  Title/Notes: 
  
  
  *********************************************************
  NOTE: The summary statistics displayed in this report are
  based on results found at every computational time step,  
  not just on results from each reporting time step.
  *********************************************************
  
  ****************
  Analysis Options
  ****************
  Flow Units ............... CMS
  Process Models:
    Rainfall/Runoff ........ YES
    RDII ................... NO
    Snowmelt ............... NO
    Groundwater ............ NO
    Flow Routing ........... YES
    Ponding Allowed ........ NO
    Water Quality .......... NO
  Infiltration Method ...... GREEN_AMPT
  Flow Routing Method ...... DYNWAVE
  Surcharge Method ......... EXTRAN
  Starting Date ............ 07/15/2020 00:00:00
  Ending Date .............. 07/15/2020 12:00:00
  Antecedent Dry Days ...... 0.0
  Report Time Step ......... 00:30:00
  Wet Time Step ............ 00:05:00
  Dry Time Step ............ 01:00:00
  Routing Time Step ........ 30.00 sec
  Variable Time Step ....... YES
  Maximum Trials ........... 8
  Number of Threads ........ 1
  Head Tolerance ........... 0.001500 m
  
  
  **************************        Volume         Depth
  Runoff Quantity Continuity     hectare-m            mm
  **************************     ---------       -------
  Total Precipitation ......       136.681        34.200
  Evaporation Loss .........         4.129         1.033
  Infiltration Loss ........        36.527         9.140
  Surface Runoff ...........        85.140        21.304
  Final Storage ............        11.587         2.899
  Continuity Error (%) .....        -0.514
  
  
  **************************        Volume        Volume
  Flow Routing Continuity        hectare-m      10^6 ltr
  **************************     ---------     ---------
  Dry Weather Inflow .......         0.000         0.000
  Wet Weather Inflow .......        84.530       845.307
  Groundwater Inflow .......         0.000         0.000
  RDII Inflow ..............         0.000         0.000
  External Inflow ..........         0.000         0.000
  External Outflow .........         7.049        70.493
  Flooding Loss ............        75.248       752.489
  Evaporation Loss .........         0.000         0.000
  Exfiltration Loss ........         0.000         0.000
  Initial Stored Volume ....         0.000         0.000
  Final Stored Volume ......         2.034        20.341
  Continuity Error (%) .....         0.235
  
  
  *************************
  Highest Continuity Errors
  *************************
  Node jd51 (6.41%)
  Node jd64 (5.12%)
  Node jd59 (5.11%)
  Node jd55 (4.96%)
  Node jd31 (4.89%)
  
  
  ***************************
  Time-Step Critical Elements
  ***************************
  Link GQ73 (90.92%)
  
  
  ********************************
  Highest Flow Instability Indexes
  ********************************
  Link GQ67 (16)
  Link GQ96 (4)
  Link GQ46 (4)
  Link GQ29 (4)
  Link GQ121 (3)
  
  
  *************************
  Routing Time Step Summary
  *************************
  Minimum Time Step           :     3.56 sec
  Average Time Step           :    10.45 sec
  Maximum Time Step           :    30.00 sec
  Percent in Steady State     :    -0.00
  Average Iterations per Step :     3.99
  Percent Not Converging      :    16.94
  
  
  ***************************
  Subcatchment Runoff Summary
  ***************************
  
  ------------------------------------------------------------------------------------------------------------------------------
                            Total      Total      Total      Total     Imperv       Perv      Total       Total     Peak  Runoff
                           Precip      Runon       Evap      Infil     Runoff     Runoff     Runoff      Runoff   Runoff   Coeff
  Subcatchment                 mm         mm         mm         mm         mm         mm         mm    10^6 ltr      CMS
  ------------------------------------------------------------------------------------------------------------------------------
  1                         34.20       0.00       0.62      19.16      12.97       0.00      12.97        5.13     1.00   0.379
  2                         34.20       0.00       1.11       7.28      22.49       0.00      22.49       20.34     4.08   0.658
  3                         34.20       0.00       1.15       6.24      23.94       0.00      23.94        9.58     1.89   0.700
  4                         34.20       0.00       1.19       5.36      25.07       0.00      25.07        2.10     0.41   0.733
  5                         34.20       0.00       1.05       8.71      22.12       0.00      22.12        2.74     0.53   0.647
  6                         34.20       0.00       1.01       9.80      21.29       0.00      21.29        1.98     0.38   0.623
  7                         34.20       0.00       1.05       8.75      21.47       0.00      21.47        9.36     1.87   0.628
  8                         34.20       0.00       1.33       1.91      27.54       0.00      27.54        3.84     0.76   0.805
  9                         34.20       0.00       1.37       0.96      28.55       0.00      28.55        3.34     0.66   0.835
  10                        34.20       0.00       1.18       5.56      24.57       0.00      24.57        5.54     1.09   0.718
  11                        34.20       0.00       1.28       3.27      26.29       0.00      26.29       13.03     2.58   0.769
  12                        34.20       0.00       1.00       9.83      20.87       0.00      20.87       10.18     2.01   0.610
  13                        34.20       0.00       1.26       3.69      25.98       0.00      25.98       11.75     2.33   0.760
  14                        34.20       0.00       1.26       3.73      26.23       0.00      26.23        4.95     0.97   0.767
  15                        34.20       0.00       1.16       6.01      24.11       0.00      24.11        8.15     1.61   0.705
  16                        34.20       0.00       1.21       4.97      24.90       0.00      24.90        7.36     1.46   0.728
  17                        34.20       0.00       1.13       6.83      23.40       0.00      23.40        9.79     1.93   0.684
  18                        34.20       0.00       1.30       2.69      26.78       0.00      26.78       11.06     2.19   0.783
  19                        34.20       0.00       1.29       2.81      26.62       0.00      26.62        5.98     1.19   0.778
  20                        34.20       0.00       1.29       3.00      26.12       0.00      26.12       14.01     2.81   0.764
  21                        34.20       0.00       1.37       1.01      28.20       0.00      28.20        8.85     1.76   0.825
  22                        34.20       0.00       1.34       1.61      27.60       0.00      27.60        3.39     0.68   0.807
  23                        34.20       0.00       1.24       4.18      25.36       0.00      25.36       14.52     2.89   0.742
  24                        34.20       0.00       1.19       5.22      24.44       0.00      24.44        4.33     0.86   0.715
  25                        34.20       0.00       1.28       3.21      26.58       0.00      26.58        5.38     1.06   0.777
  26                        34.20       0.00       1.09       7.80      22.12       0.00      22.12        7.76     1.56   0.647
  27                        34.20       0.00       1.30       2.56      26.50       0.00      26.50       11.20     2.25   0.775
  28                        34.20       0.00       1.33       1.89      27.24       0.00      27.24       12.88     2.57   0.797
  29                        34.20       0.00       1.19       5.31      24.88       0.00      24.88        5.81     1.14   0.728
  30                        34.20       0.00       1.36       1.15      28.70       0.00      28.70        2.06     0.40   0.839
  31                        34.20       0.00       1.38       0.72      28.55       0.00      28.55        6.29     1.24   0.835
  32                        34.20       0.00       1.35       1.52      27.76       0.00      27.76       12.00     2.38   0.812
  33                        34.20       0.00       1.36       1.11      28.01       0.00      28.01        9.87     1.96   0.819
  34                        34.20       0.00       1.27       3.46      26.16       0.00      26.16        7.67     1.52   0.765
  35                        34.20       0.00       1.30       2.58      26.90       0.00      26.90       11.16     2.21   0.786
  36                        34.20       0.00       1.07       8.15      22.32       0.00      22.32        8.78     1.73   0.653
  37                        34.20       0.00       1.33       1.85      27.49       0.00      27.49        6.10     1.21   0.804
  38                        34.20       0.00       1.25       3.87      25.88       0.00      25.88        9.87     1.95   0.757
  39                        34.20       0.00       1.13       6.80      23.48       0.00      23.48        9.91     1.95   0.687
  40                        34.20       0.00       1.26       3.70      25.99       0.00      25.99        5.94     1.18   0.760
  41                        34.20       0.00       1.29       3.01      26.81       0.00      26.81        5.29     1.04   0.784
  42                        34.20       0.00       1.28       3.04      26.19       0.00      26.19        6.47     1.29   0.766
  43                        34.20       0.00       1.08       8.00      22.09       0.00      22.09       17.46     3.48   0.646
  44                        34.20       0.00       1.15       6.23      23.60       0.00      23.60       11.41     2.28   0.690
  45                        34.20       0.00       1.08       7.93      22.26       0.00      22.26       16.11     3.20   0.651
  46                        34.20       0.00       1.05       8.84      21.84       0.00      21.84       10.92     2.14   0.639
  47                        34.20       0.00       1.10       7.56      22.57       0.00      22.57       26.32     5.23   0.660
  48                        34.20       0.00       1.31       2.37      26.61       0.00      26.61       15.44     3.10   0.778
  49                        34.20       0.00       1.20       5.07      24.38       0.00      24.38       16.50     3.31   0.713
  50                        34.20       0.00       1.33       1.93      26.69       0.00      26.69       10.49     2.12   0.780
  51                        34.20       0.00       1.27       3.32      25.62       0.00      25.62        4.79     0.97   0.749
  52                        34.20       0.00       0.62      19.19      13.11       0.00      13.11       13.45     2.60   0.383
  53                        34.20       0.00       0.90      12.45      18.75       0.00      18.75       19.97     3.91   0.548
  54                        34.20       0.00       1.11       7.36      22.96       0.00      22.96        5.60     1.10   0.671
  55                        34.20       0.00       0.63      18.83      13.39       0.00      13.39       10.57     2.05   0.392
  56                        34.20       0.00       0.24      28.41       5.20       0.00       5.20        4.24     0.80   0.152
  57                        34.20       0.00       1.25       3.81      25.43       0.00      25.43       21.13     4.24   0.744
  58                        34.20       0.00       1.16       6.04      24.07       0.00      24.07        3.96     0.78   0.704
  59                        34.20       0.00       1.13       6.71      23.89       0.00      23.89        3.04     0.59   0.699
  60                        34.20       0.00       0.42      23.90       9.09       0.00       9.09        2.60     0.50   0.266
  61                        34.20       0.00       0.66      18.18      13.80       0.00      13.80        5.20     1.02   0.404
  62                        34.20       0.00       0.92      11.90      18.89       0.00      18.89       22.13     4.40   0.552
  63                        34.20       0.00       1.25       3.77      25.26       0.00      25.26       48.84     9.84   0.738
  64                        34.20       0.00       0.94      11.50      19.44       0.00      19.44        4.17     0.82   0.568
  65                        34.20       0.00       1.27       3.34      25.68       0.00      25.68       17.27     3.48   0.751
  66                        34.20       0.00       1.00       9.89      20.51       0.00      20.51        5.23     1.04   0.600
  67                        34.20       0.00       0.94      11.48      19.54       0.00      19.54        6.32     1.24   0.571
  68                        34.20       0.00       1.12       6.95      23.43       0.00      23.43        2.60     0.51   0.685
  69                        34.20       0.00       0.66      18.20      14.05       0.00      14.05        4.50     0.86   0.411
  70                        34.20       0.00       0.93      11.69      19.21       0.00      19.21       15.80     3.12   0.562
  71                        34.20       0.00       1.15       6.39      23.87       0.00      23.87        2.93     0.58   0.698
  72                        34.20       0.00       1.21       4.88      25.15       0.00      25.15        3.13     0.62   0.735
  73                        34.20       0.00       1.10       7.64      23.00       0.00      23.00        3.82     0.74   0.673
  74                        34.20       0.00       1.04       8.88      21.86       0.00      21.86        4.71     0.92   0.639
  75                        34.20       0.00       1.16       6.06      24.20       0.00      24.20        3.49     0.68   0.708
  76                        34.20       0.00       1.22       4.59      25.53       0.00      25.53        2.47     0.48   0.747
  77                        34.20       0.00       1.30       2.63      27.00       0.00      27.00        2.92     0.58   0.789
  78                        34.20       0.00       1.26       3.74      25.97       0.00      25.97        2.85     0.56   0.759
  79                        34.20       0.00       0.55      20.84      11.67       0.00      11.67       12.37     2.39   0.341
  80                        34.20       0.00       1.04       9.02      21.31       0.00      21.31       13.34     2.65   0.623
  81                        34.20       0.00       1.05       8.63      21.59       0.00      21.59        9.41     1.88   0.631
  82                        34.20       0.00       1.01       9.71      20.69       0.00      20.69       18.97     3.78   0.605
  83                        34.20       0.00       1.26       3.59      26.29       0.00      26.29        3.21     0.63   0.769
  84                        34.20       0.00       1.19       5.31      24.65       0.00      24.65        2.94     0.58   0.721
  85                        34.20       0.00       1.40       0.26      29.30       0.00      29.30        2.72     0.53   0.857
  86                        34.20       0.00       1.29       2.89      26.79       0.00      26.79        3.95     0.78   0.783
  87                        34.20       0.00       1.38       0.73      28.45       0.00      28.45        3.74     0.74   0.832
  88                        34.20       0.00       1.23       4.26      25.74       0.00      25.74        2.47     0.48   0.753
  89                        34.20       0.00       1.30       2.75      27.00       0.00      27.00        5.20     1.02   0.790
  90                        34.20       0.00       1.41       0.01      29.77       0.00      29.77        0.34     0.07   0.871
  91                        34.20       0.00       1.17       5.73      23.84       0.00      23.84        5.20     1.04   0.697
  92                        34.20       0.00       1.30       2.66      26.99       0.00      26.99        3.37     0.66   0.789
  93                        34.20       0.00       1.06       8.50      21.91       0.00      21.91       11.21     2.22   0.641
  94                        34.20       0.00       0.95      11.08      20.20       0.00      20.20        1.42     0.27   0.591
  95                        34.20       0.00       1.41       0.04      29.47       0.00      29.47        0.64     0.13   0.862
  96                        34.20       0.00       1.14       6.62      23.77       0.00      23.77        2.90     0.57   0.695
  97                        34.20       0.00       1.38       0.73      28.69       0.00      28.69        2.85     0.56   0.839
  98                        34.20       0.00       1.14       6.46      23.95       0.00      23.95        2.95     0.58   0.700
  99                        34.20       0.00       0.57      20.46      12.02       0.00      12.02        4.46     0.86   0.352
  100                       34.20       0.00       0.63      18.93      13.37       0.00      13.37        3.43     0.66   0.391
  101                       34.20       0.00       0.65      18.55      13.55       0.00      13.55        6.64     1.29   0.396
  102                       34.20       0.00       1.05       8.70      21.86       0.00      21.86        5.33     1.05   0.639
  103                       34.20       0.00       0.35      25.67       7.65       0.00       7.65        2.78     0.52   0.224
  104                       34.20       0.00       0.24      28.43       5.15       0.00       5.15        4.99     0.94   0.150
  105                       34.20       0.00       1.16       6.07      24.28       0.00      24.28        3.18     0.62   0.710
  106                       34.20       0.00       0.63      18.96      13.30       0.00      13.30        3.25     0.63   0.389
  
  
  ******************
  Node Depth Summary
  ******************
  
  ---------------------------------------------------------------------------------
                                 Average  Maximum  Maximum  Time of Max    Reported
                                   Depth    Depth      HGL   Occurrence   Max Depth
  Node                 Type       Meters   Meters   Meters  days hr:min      Meters
  ---------------------------------------------------------------------------------
  jd1                  JUNCTION     0.10     0.25   273.25     0  05:00        0.25
  jd2                  JUNCTION     0.74     3.00   270.00     0  04:15        3.00
  jd3                  JUNCTION     2.60     3.00   266.00     0  03:54        3.00
  jd4                  JUNCTION     1.11     3.00   270.00     0  04:09        3.00
  jd5                  JUNCTION     0.07     0.18   274.18     0  05:00        0.18
  jd6                  JUNCTION     0.09     0.24   275.24     0  05:00        0.24
  jd7                  JUNCTION     0.28     0.62   264.72     0  05:00        0.62
  jd8                  JUNCTION     1.46     3.00   267.00     0  04:01        3.00
  jd9                  JUNCTION     1.18     3.00   268.00     0  04:06        3.00
  jd10                 JUNCTION     2.62     3.00   273.00     0  03:47        3.00
  jd11                 JUNCTION     0.08     0.21   282.21     0  05:00        0.21
  jd12                 JUNCTION     2.64     3.00   272.00     0  03:42        3.00
  jd13                 JUNCTION     0.10     0.28   289.28     0  05:00        0.28
  jd14                 JUNCTION     0.69     3.00   283.00     0  04:13        3.00
  jd15                 JUNCTION     0.24     0.67   278.67     0  05:00        0.67
  jd16                 JUNCTION     0.27     0.78   274.78     0  05:00        0.78
  jd17                 JUNCTION     1.61     3.00   278.80     0  04:05        3.00
  jd18                 JUNCTION     0.69     3.00   282.00     0  04:17        3.00
  jd19                 JUNCTION     0.98     3.00   270.00     0  04:07        3.00
  jd20                 JUNCTION     0.19     0.45   273.45     0  05:00        0.45
  jd21                 JUNCTION     2.60     3.00   273.00     0  03:52        3.00
  jd22                 JUNCTION     1.50     3.00   275.00     0  04:02        3.00
  jd23                 JUNCTION     0.58     3.00   281.00     0  04:21        3.00
  jd24                 JUNCTION     0.12     0.31   285.31     0  05:00        0.31
  jd25                 JUNCTION     0.49     3.00   282.00     0  04:26        2.61
  jd26                 JUNCTION     0.71     3.00   288.00     0  04:13        3.00
  jd27                 JUNCTION     0.50     3.00   294.00     0  04:25        3.00
  jd28                 JUNCTION     2.66     3.00   290.00     0  03:35        3.00
  jd29                 JUNCTION     0.08     0.21   299.21     0  05:00        0.21
  jd30                 JUNCTION     0.11     0.27   290.27     0  05:00        0.27
  jd31                 JUNCTION     1.08     3.00   275.00     0  04:06        2.26
  jd32                 JUNCTION     2.65     3.00   275.00     0  03:41        3.00
  jd33                 JUNCTION     0.17     0.46   289.46     0  05:00        0.46
  jd34                 JUNCTION     0.63     3.00   297.00     0  04:13        3.00
  jd35                 JUNCTION     2.69     3.00   292.00     0  03:27        3.00
  jd36                 JUNCTION     0.79     3.00   302.00     0  04:12        3.00
  jd37                 JUNCTION     0.78     3.00   306.00     0  04:10        3.00
  jd38                 JUNCTION     0.58     3.00   300.00     0  04:22        2.72
  jd39                 JUNCTION     2.61     3.00   297.00     0  03:54        3.00
  jd40                 JUNCTION     0.94     3.00   302.00     0  04:12        3.00
  jd41                 JUNCTION     2.54     3.00   296.00     0  04:10        3.00
  jd42                 JUNCTION     0.18     0.49   305.49     0  05:00        0.49
  jd43                 JUNCTION     0.90     3.00   300.00     0  04:08        3.00
  jd44                 JUNCTION     0.92     3.00   286.00     0  04:11        3.00
  jd45                 JUNCTION     2.63     3.00   282.00     0  03:47        3.00
  jd46                 JUNCTION     0.52     3.00   278.00     0  04:32        3.00
  jd47                 JUNCTION     0.13     0.34   315.34     0  05:00        0.34
  jd48                 JUNCTION     0.10     0.25   325.25     0  05:00        0.25
  jd49                 JUNCTION     0.48     3.00   292.00     0  04:33        3.00
  jd50                 JUNCTION     2.67     3.00   278.00     0  03:33        3.00
  jd51                 JUNCTION     2.53     3.00   313.00     0  04:10        3.00
  jd52                 JUNCTION     0.60     3.00   326.00     0  04:16        2.03
  jd53                 JUNCTION     0.80     3.00   325.00     0  04:15        3.00
  jd54                 JUNCTION     0.26     0.77   326.77     0  05:00        0.77
  jd55                 JUNCTION     1.49     3.00   325.00     0  04:08        3.00
  jd56                 JUNCTION     0.17     0.49   327.49     0  05:00        0.49
  jd59                 JUNCTION     2.51     3.00   320.80     0  04:12        3.00
  jd60                 JUNCTION     2.64     3.00   319.00     0  03:41        3.00
  jd61                 JUNCTION     0.13     0.34   329.34     0  05:00        0.34
  jd62                 JUNCTION     0.05     0.14   335.14     0  05:00        0.14
  jd63                 JUNCTION     0.06     0.15   324.15     0  05:00        0.15
  jd64                 JUNCTION     2.37     3.00   321.00     0  04:11        2.99
  jd65                 JUNCTION     1.41     3.00   307.00     0  04:04        3.00
  jd66                 JUNCTION     2.62     3.00   304.00     0  03:49        3.00
  jd69                 JUNCTION     0.21     0.58   333.58     0  05:00        0.58
  jd79                 JUNCTION     2.42     3.00   274.00     0  03:38        3.00
  jd80                 JUNCTION     1.62     3.00   279.00     0  04:01        3.00
  jd81                 JUNCTION     0.13     0.35   288.35     0  05:00        0.35
  jd83                 JUNCTION     2.70     3.00   323.00     0  03:24        3.00
  jd84                 JUNCTION     0.67     3.00   326.00     0  04:10        3.00
  jd85                 JUNCTION     2.62     3.00   324.00     0  03:47        3.00
  jd87                 JUNCTION     2.63     3.00   322.00     0  03:45        3.00
  jd89                 JUNCTION     0.15     0.43   324.43     0  05:00        0.43
  jd90                 JUNCTION     0.12     0.33   328.33     0  05:00        0.33
  jd92                 JUNCTION     0.14     0.42   326.42     0  05:00        0.42
  jd93                 JUNCTION     0.82     3.00   327.00     0  04:13        3.00
  jd94                 JUNCTION     0.53     3.00   329.20     0  04:17        2.31
  jd95                 JUNCTION     0.65     3.00   330.00     0  04:17        2.85
  jd96                 JUNCTION     2.66     3.00   308.00     0  03:40        3.00
  jd97                 JUNCTION     0.68     3.00   330.20     0  04:14        3.00
  jd98                 JUNCTION     0.18     0.51   329.51     0  05:00        0.51
  jd99                 JUNCTION     2.61     3.00   327.00     0  03:50        3.00
  jd101                JUNCTION     0.10     0.24   321.24     0  05:00        0.24
  jd102                JUNCTION     0.58     3.00   327.00     0  04:19        3.00
  jd103                JUNCTION     0.10     0.26   318.26     0  05:00        0.26
  jd106                JUNCTION     2.55     3.00   287.00     0  04:05        3.00
  jd107                JUNCTION     0.18     0.48   332.48     0  05:00        0.48
  jd108                JUNCTION     1.10     1.63   327.63     0  05:00        1.63
  jd109                JUNCTION     0.15     0.40   343.40     0  05:00        0.40
  jd110                JUNCTION     2.63     3.00   327.00     0  03:47        3.00
  jd111                JUNCTION     0.06     0.16   344.16     0  05:00        0.16
  jd112                JUNCTION     0.08     0.20   334.20     0  05:00        0.20
  jd113                JUNCTION     0.09     0.23   348.23     0  05:00        0.23
  jd114                JUNCTION     2.63     3.00   317.00     0  03:45        3.00
  jd117                JUNCTION     1.32     3.00   319.00     0  03:53        3.00
  jd118                JUNCTION     0.08     0.21   330.21     0  05:00        0.21
  jd120                JUNCTION     0.16     0.50   327.50     0  05:00        0.50
  jd121                JUNCTION     0.15     0.41   320.41     0  05:00        0.41
  jd122                JUNCTION     2.60     3.00   276.00     0  03:52        3.00
  jd123                JUNCTION     2.58     3.00   276.20     0  03:55        3.00
  jd124                JUNCTION     2.73     3.00   271.00     0  03:14        3.00
  jd125                JUNCTION     1.04     3.00   278.00     0  04:09        3.00
  jd126                JUNCTION     2.70     3.00   275.00     0  03:25        3.00
  jd135                JUNCTION     0.13     0.38   289.38     0  05:00        0.38
  jd136                JUNCTION     0.24     0.70   341.70     0  05:00        0.70
  psk1                 OUTFALL      0.08     0.20   279.20     0  05:00        0.20
  psk2                 OUTFALL      0.11     0.27   270.27     0  05:00        0.27
  psk3                 OUTFALL      0.27     0.78   271.78     0  05:00        0.78
  psk4                 OUTFALL      0.00     0.00   280.00     0  00:00        0.00
  psk5                 OUTFALL      0.10     0.25   263.25     0  05:00        0.25
  psk6                 OUTFALL      0.07     0.18   259.18     0  05:00        0.18
  psk7                 OUTFALL      0.28     0.62   262.62     0  05:00        0.62
  psk8                 OUTFALL      0.00     0.00   317.00     0  00:00        0.00
  
  
  *******************
  Node Inflow Summary
  *******************
  
  -------------------------------------------------------------------------------------------------
                                  Maximum  Maximum                  Lateral       Total        Flow
                                  Lateral    Total  Time of Max      Inflow      Inflow     Balance
                                   Inflow   Inflow   Occurrence      Volume      Volume       Error
  Node                 Type           CMS      CMS  days hr:min    10^6 ltr    10^6 ltr     Percent
  -------------------------------------------------------------------------------------------------
  jd1                  JUNCTION     1.004    1.346     0  05:00         5.1        7.48       0.889
  jd2                  JUNCTION     1.556    2.027     0  05:00        7.71        10.3       1.173
  jd3                  JUNCTION     1.867    3.585     0  05:00        9.29        23.5       1.749
  jd4                  JUNCTION     2.246    2.487     0  05:00        11.1        12.4       2.246
  jd5                  JUNCTION     0.656    1.035     0  05:00        3.32        5.48       0.410
  jd6                  JUNCTION     0.758    0.758     0  05:00        3.81        3.81       0.530
  jd7                  JUNCTION     0.382    2.970     0  05:00        1.96        21.6       0.781
  jd8                  JUNCTION     0.532    1.478     0  05:00        2.72        13.7       1.787
  jd9                  JUNCTION     0.408    1.476     0  05:00        2.09        13.1       1.647
  jd10                 JUNCTION     1.088    1.374     0  05:00         5.5        6.95       1.493
  jd11                 JUNCTION     1.607    1.607     0  05:00        8.09        8.09       0.640
  jd12                 JUNCTION     1.210    2.685     0  05:00        6.06        13.3       1.060
  jd13                 JUNCTION     2.193    2.193     0  05:00          11          11       0.513
  jd14                 JUNCTION     2.571    2.914     0  05:00        12.8        14.4       0.847
  jd15                 JUNCTION     1.058    2.023     0  05:00        5.34          11       2.319
  jd16                 JUNCTION     1.138    4.391     0  05:00        5.77          22       0.939
  jd17                 JUNCTION     2.380    4.676     0  05:00        11.9          28       2.865
  jd18                 JUNCTION     1.887    2.764     0  05:00        9.51        13.8       1.475
  jd19                 JUNCTION     1.752    3.103     0  05:00        8.85        17.5       1.160
  jd20                 JUNCTION     1.456    1.707     0  05:00         7.3        11.6       0.985
  jd21                 JUNCTION     0.675    3.557     0  05:00        3.37        22.4       1.525
  jd22                 JUNCTION     1.189    2.186     0  05:00        5.94          12       0.691
  jd23                 JUNCTION     1.176    3.508     0  05:00         5.9          17       0.598
  jd24                 JUNCTION     1.932    1.932     0  05:00        9.72        9.72       0.629
  jd25                 JUNCTION     1.519    2.219     0  05:00        7.61        11.1       0.979
  jd26                 JUNCTION     2.211    3.424     0  05:00        11.1        17.7       0.915
  jd27                 JUNCTION     2.275    2.898     0  05:00        11.3        16.5       0.898
  jd28                 JUNCTION     3.101    4.007     0  05:00        15.3        20.5       0.675
  jd29                 JUNCTION     1.244    1.244     0  05:00        6.25        6.25       0.415
  jd30                 JUNCTION     1.294    3.266     0  05:00        6.42        17.4       0.518
  jd31                 JUNCTION     0.865    1.703     0  05:00         4.3        9.07       5.143
  jd32                 JUNCTION     1.756    5.089     0  05:00        8.78        30.8       0.836
  jd33                 JUNCTION     1.729    2.787     0  05:00        8.72        14.4       0.570
  jd34                 JUNCTION     2.138    2.138     0  05:00        10.8        10.8       0.450
  jd35                 JUNCTION     1.951    4.132     0  05:00        9.84        26.5       0.512
  jd36                 JUNCTION     3.311    4.369     0  05:00        16.4          24       1.057
  jd37                 JUNCTION     3.483    3.483     0  05:00        17.3        17.3       0.704
  jd38                 JUNCTION     3.201    4.027     0  05:00          16          23       1.481
  jd39                 JUNCTION     2.217    5.632     0  05:00        11.1        35.9       1.454
  jd40                 JUNCTION     3.778    5.969     0  05:00        18.8        36.3       1.803
  jd41                 JUNCTION     2.654    8.260     0  05:00        13.2        46.3       4.753
  jd42                 JUNCTION     3.476    3.811     0  05:00        17.2        18.9       0.953
  jd43                 JUNCTION     3.907    6.227     0  05:00        19.8        32.8       1.722
  jd44                 JUNCTION     5.230    8.106     0  05:00        26.1        49.8       1.785
  jd45                 JUNCTION     2.116    4.341     0  05:00        10.4        29.5       1.121
  jd46                 JUNCTION     0.966    0.966     0  05:00        4.76        4.76       2.689
  jd47                 JUNCTION     3.122    3.122     0  05:00        15.7        15.7       0.722
  jd48                 JUNCTION     0.864    0.864     0  05:00        4.46        4.46       0.706
  jd49                 JUNCTION     4.238    4.238     0  05:00          21          21       0.787
  jd50                 JUNCTION     4.399    8.329     0  05:00          22        54.2       0.811
  jd51                 JUNCTION     0.919    4.197     0  05:00        4.67        21.2       6.853
  jd52                 JUNCTION     1.875    5.634     0  04:16        9.34        23.8       1.772
  jd53                 JUNCTION     1.042    3.965     0  05:00        5.16        23.1       0.861
  jd54                 JUNCTION     0.561    2.786     0  05:00        2.83          14       1.030
  jd55                 JUNCTION     1.022    4.406     0  05:00        5.16        19.6       5.219
  jd56                 JUNCTION     0.621    1.816     0  05:00        3.15         9.2       0.836
  jd59                 JUNCTION     0.616    3.044     0  05:00        3.11        14.9       5.390
  jd60                 JUNCTION     1.103    2.340     0  05:00        5.56        11.8       1.113
  jd61                 JUNCTION     1.238    1.392     0  05:00        6.27        7.07       0.601
  jd62                 JUNCTION     0.498    0.498     0  05:00        2.58        2.58       0.300
  jd63                 JUNCTION     0.684    0.684     0  05:00        3.46        3.46       0.437
  jd64                 JUNCTION     0.576    1.422     0  05:00         2.9        7.15       5.397
  jd65                 JUNCTION     9.835    9.835     0  05:00        48.5        48.5       0.435
  jd66                 JUNCTION     1.293    3.749     0  05:00        6.59        19.1       1.712
  jd69                 JUNCTION     2.390    2.456     0  05:00        12.3        12.6       0.847
  jd79                 JUNCTION     2.327    3.243     0  05:00        11.7        18.3       0.982
  jd80                 JUNCTION     2.585    3.192     0  05:00        12.9        16.7       0.922
  jd81                 JUNCTION     1.964    1.964     0  05:00         9.8         9.8       0.229
  jd83                 JUNCTION     2.046    2.624     0  05:00        10.5        13.8       0.641
  jd84                 JUNCTION     2.600    2.600     0  05:00        13.4        13.4       0.674
  jd85                 JUNCTION     0.590    0.966     0  05:00        3.02        4.96       1.756
  jd87                 JUNCTION     0.484    1.167     0  05:00        2.45         5.9       1.288
  jd89                 JUNCTION     0.564    0.564     0  05:00        2.83        2.83       0.876
  jd90                 JUNCTION     0.575    0.575     0  05:00        2.91        2.91       0.659
  jd92                 JUNCTION     0.484    0.484     0  05:00        2.45        2.45       0.487
  jd93                 JUNCTION     1.042    2.007     0  05:00        5.19        10.6       1.182
  jd94                 JUNCTION     0.066    1.062     0  04:17       0.339        5.45       1.052
  jd95                 JUNCTION     0.126    0.999     0  04:17       0.639        5.19       1.460
  jd96                 JUNCTION     0.943    1.258     0  05:00        4.95        6.53       1.510
  jd97                 JUNCTION     1.018    1.018     0  05:00        5.16        5.16       0.369
  jd98                 JUNCTION     0.568    0.568     0  05:00        2.88        2.88       0.562
  jd99                 JUNCTION     0.273    0.583     0  05:00         1.4        3.66       1.602
  jd101                JUNCTION     0.744    1.442     0  05:00        3.79        7.41       0.578
  jd102                JUNCTION     0.742    0.742     0  05:00        3.71        3.71       0.756
  jd103                JUNCTION     0.511    0.511     0  05:00        2.58        2.58       0.266
  jd106                JUNCTION     0.400    2.280     0  05:00        2.04        11.6       3.436
  jd107                JUNCTION     0.577    1.897     0  05:00        2.93         9.6       0.980
  jd108                JUNCTION     0.627    0.627     0  05:00        3.22        3.24       2.059
  jd109                JUNCTION     1.049    1.049     0  05:00        5.29        5.29       0.247
  jd110                JUNCTION     0.796    1.186     0  05:00         4.2         6.2       2.540
  jd111                JUNCTION     0.661    0.661     0  05:00        3.41        3.41       0.504
  jd112                JUNCTION     0.778    2.161     0  05:00        3.92          11       0.417
  jd113                JUNCTION     0.523    0.523     0  05:00        2.76        2.76       0.155
  jd114                JUNCTION     0.631    4.347     0  05:00        3.19          30       1.075
  jd117                JUNCTION     0.581    1.897     0  05:00        2.92        9.73       1.627
  jd118                JUNCTION     0.532    0.532     0  05:00         2.7         2.7       0.135
  jd120                JUNCTION     0.665    0.665     0  05:00        3.35        3.35       0.432
  jd121                JUNCTION     0.821    0.821     0  05:00        4.14        4.14       0.520
  jd122                JUNCTION     1.950    6.315     0  05:00         9.8        40.7       1.403
  jd123                JUNCTION     2.005    4.490     0  05:00        10.1        33.7       2.104
  jd124                JUNCTION     2.893    3.966     0  05:00        14.4        27.2       0.240
  jd125                JUNCTION     2.811    4.487     0  05:00        13.9        31.5       1.265
  jd126                JUNCTION     4.081    4.944     0  05:00        20.2        26.3       0.405
  jd135                JUNCTION     1.038    1.038     0  05:00        5.25        5.25       0.390
  jd136                JUNCTION     0.860    1.383     0  05:00        4.43        7.19       1.034
  psk1                 OUTFALL      0.000    1.050     0  05:00           0        5.28       0.000
  psk2                 OUTFALL      0.000    2.496     0  05:00           0          13       0.000
  psk3                 OUTFALL      0.000    4.390     0  05:00           0        21.8       0.000
  psk4                 OUTFALL      0.000    0.000     0  00:00           0           0       0.000 ltr
  psk5                 OUTFALL      0.000    0.874     0  05:00           0        4.81       0.000
  psk6                 OUTFALL      0.000    0.793     0  05:00           0        4.19       0.000
  psk7                 OUTFALL      0.000    2.970     0  05:00           0        21.4       0.000
  psk8                 OUTFALL      0.000    0.000     0  00:00           0           0       0.000 ltr
  
  
  **********************
  Node Surcharge Summary
  **********************
  
  Surcharging occurs when water rises above the top of the highest conduit.
  ---------------------------------------------------------------------
                                               Max. Height   Min. Depth
                                   Hours       Above Crown    Below Rim
  Node                 Type      Surcharged         Meters       Meters
  ---------------------------------------------------------------------
  jd2                  JUNCTION        0.99          2.200        0.000
  jd3                  JUNCTION        8.09          2.200        0.000
  jd4                  JUNCTION        1.88          2.200        0.000
  jd8                  JUNCTION        3.15          2.200        0.000
  jd9                  JUNCTION        2.26          2.200        0.000
  jd10                 JUNCTION        8.21          2.400        0.000
  jd12                 JUNCTION        8.30          2.400        0.000
  jd14                 JUNCTION        0.93          2.400        0.000
  jd17                 JUNCTION        3.18          2.200        0.000
  jd18                 JUNCTION        0.88          2.000        0.000
  jd19                 JUNCTION        1.55          2.200        0.000
  jd21                 JUNCTION        8.13          2.200        0.000
  jd22                 JUNCTION        7.96          2.400        0.000
  jd23                 JUNCTION        0.78          2.000        0.000
  jd25                 JUNCTION        0.63          2.000        0.000
  jd26                 JUNCTION        0.95          2.400        0.000
  jd27                 JUNCTION        0.65          2.400        0.000
  jd28                 JUNCTION        8.41          2.400        0.000
  jd31                 JUNCTION        7.90          2.200        0.000
  jd32                 JUNCTION        8.32          2.200        0.000
  jd34                 JUNCTION        0.85          2.400        0.000
  jd35                 JUNCTION        8.55          2.400        0.000
  jd36                 JUNCTION        1.10          2.400        0.000
  jd37                 JUNCTION        1.08          2.400        0.000
  jd38                 JUNCTION        0.71          2.000        0.000
  jd39                 JUNCTION        8.10          2.000        0.000
  jd40                 JUNCTION        1.32          2.200        0.000
  jd41                 JUNCTION        7.83          1.000        0.000
  jd43                 JUNCTION        1.17          2.200        0.000
  jd44                 JUNCTION        1.23          2.000        0.000
  jd45                 JUNCTION        8.22          2.000        0.000
  jd46                 JUNCTION        0.58          2.200        0.000
  jd49                 JUNCTION        0.51          2.200        0.000
  jd50                 JUNCTION        8.44          2.200        0.000
  jd51                 JUNCTION        7.82          1.350        0.000
  jd52                 JUNCTION        0.97          1.500        0.000
  jd53                 JUNCTION        1.04          1.800        0.000
  jd55                 JUNCTION        1.54          1.500        0.000
  jd59                 JUNCTION        7.80          1.500        0.000
  jd60                 JUNCTION        8.32          2.400        0.000
  jd64                 JUNCTION        7.81          1.800        0.000
  jd65                 JUNCTION        2.62          2.400        0.000
  jd66                 JUNCTION        8.17          2.200        0.000
  jd79                 JUNCTION        8.37          2.400        0.000
  jd80                 JUNCTION        3.50          2.400        0.000
  jd83                 JUNCTION        8.59          2.400        0.000
  jd84                 JUNCTION        0.91          2.400        0.000
  jd85                 JUNCTION        8.22          2.400        0.000
  jd87                 JUNCTION        8.26          2.400        0.000
  jd93                 JUNCTION        1.13          2.200        0.000
  jd94                 JUNCTION        0.93          2.200        0.000
  jd95                 JUNCTION        0.90          2.200        0.000
  jd96                 JUNCTION        8.34          2.200        0.000
  jd97                 JUNCTION        0.90          2.200        0.000
  jd99                 JUNCTION        8.16          2.400        0.000
  jd102                JUNCTION        0.75          2.400        0.000
  jd106                JUNCTION        7.91          2.000        0.000
  jd108                JUNCTION        8.29          0.634        1.366
  jd110                JUNCTION        8.21          2.000        0.000
  jd114                JUNCTION        8.24          2.000        0.000
  jd117                JUNCTION        8.11          2.200        0.000
  jd122                JUNCTION        8.13          2.200        0.000
  jd123                JUNCTION        8.07          2.200        0.000
  jd124                JUNCTION        8.77          2.400        0.000
  jd125                JUNCTION        1.83          2.200        0.000
  jd126                JUNCTION        8.57          2.400        0.000
  
  
  *********************
  Node Flooding Summary
  *********************
  
  Flooding refers to all water that overflows a node, whether it ponds or not.
  --------------------------------------------------------------------------
                                                             Total   Maximum
                                 Maximum   Time of Max       Flood    Ponded
                        Hours       Rate    Occurrence      Volume     Depth
  Node                 Flooded       CMS   days hr:min    10^6 ltr    Meters
  --------------------------------------------------------------------------
  jd2                     0.87     0.819      0  05:00       1.989     0.000
  jd3                     8.09     3.585      0  05:00      23.058     0.000
  jd4                     1.56     1.977      0  05:00       6.162     0.000
  jd8                     1.22     0.367      0  05:00       1.232     0.000
  jd9                     1.19     0.743      0  04:06       1.917     0.000
  jd10                    8.20     1.374      0  05:00       6.851     0.000
  jd12                    8.29     2.685      0  05:00      13.125     0.000
  jd14                    0.86     1.087      0  05:00       2.611     0.000
  jd17                    2.34     3.847      0  05:00      14.433     0.000
  jd18                    0.81     1.240      0  05:00       3.186     0.000
  jd19                    1.11     2.035      0  05:00       6.261     0.000
  jd21                    7.94     3.557      0  05:00      21.811     0.000
  jd22                    1.19     1.362      0  05:00       4.276     0.000
  jd23                    0.60     0.587      0  04:21       0.930     0.000
  jd25                    0.01     0.631      0  04:26       0.009     0.000
  jd26                    0.91     1.528      0  05:00       4.060     0.000
  jd27                    0.23     0.314      0  04:25       0.013     0.000
  jd28                    8.40     4.007      0  05:00      20.352     0.000
  jd31                    0.01     1.084      0  04:06       0.012     0.000
  jd32                    8.32     5.088      0  05:00      30.578     0.000
  jd34                    0.78     0.333      0  05:00       0.764     0.000
  jd35                    8.55     4.132      0  05:00      26.365     0.000
  jd36                    1.01     2.312      0  05:00       6.234     0.000
  jd37                    1.01     2.117      0  05:00       5.668     0.000
  jd38                    0.01     0.563      0  04:22       0.007     0.000
  jd39                    8.10     5.632      0  05:00      35.351     0.000
  jd40                    1.25     3.407      0  05:00      10.879     0.000
  jd41                    7.83     8.260      0  05:00      44.231     0.000
  jd43                    1.13     4.396      0  05:00      13.985     0.000
  jd44                    1.06     4.206      0  05:00      12.194     0.000
  jd45                    8.21     4.341      0  05:00      29.177     0.000
  jd46                    0.50     0.233      0  04:32       0.175     0.000
  jd49                    0.47     0.412      0  04:33       0.455     0.000
  jd50                    8.44     8.329      0  05:00      53.746     0.000
  jd51                    7.82     4.197      0  05:00      19.861     0.000
  jd52                    0.02     3.157      0  04:16       0.091     0.000
  jd53                    0.88     1.663      0  05:00       4.419     0.000
  jd55                    0.97     4.406      0  05:00      12.517     0.000
  jd59                    7.80     3.044      0  05:00      14.179     0.000
  jd60                    8.31     2.340      0  05:00      11.718     0.000
  jd64                    0.02     0.756      0  04:11       0.018     0.000
  jd65                    2.58     8.742      0  05:00      31.086     0.000
  jd66                    8.17     3.749      0  05:00      18.793     0.000
  jd79                    3.36     2.991      0  05:00      13.854     0.000
  jd80                    2.85     3.035      0  05:00      12.752     0.000
  jd83                    8.59     2.624      0  05:00      13.675     0.000
  jd84                    0.88     0.760      0  05:00       2.111     0.000
  jd85                    8.21     0.966      0  05:00       4.873     0.000
  jd87                    8.25     1.167      0  05:00       5.831     0.000
  jd93                    0.84     0.824      0  05:00       2.135     0.000
  jd94                    0.01     0.636      0  04:17       0.011     0.000
  jd95                    0.01     0.044      0  04:17       0.001     0.000
  jd96                    8.33     1.258      0  05:00       6.439     0.000
  jd97                    0.75     0.245      0  05:00       0.592     0.000
  jd99                    8.16     0.583      0  05:00       3.600     0.000
  jd102                   0.58     0.079      0  04:19       0.071     0.000
  jd106                   7.91     2.280      0  05:00      11.179     0.000
  jd110                   8.20     1.186      0  05:00       6.053     0.000
  jd114                   8.12     4.347      0  05:00      29.579     0.000
  jd117                   0.86     0.483      0  05:00       1.229     0.000
  jd122                   8.08     6.315      0  05:00      39.999     0.000
  jd123                   5.24     4.175      0  05:00      24.347     0.000
  jd124                   8.77     3.966      0  05:00      27.162     0.000
  jd125                   1.17     2.100      0  05:00       6.236     0.000
  jd126                   8.57     4.943      0  05:00      26.157     0.000
  
  
  ***********************
  Outfall Loading Summary
  ***********************
  
  -----------------------------------------------------------
                         Flow       Avg       Max       Total
                         Freq      Flow      Flow      Volume
  Outfall Node           Pcnt       CMS       CMS    10^6 ltr
  -----------------------------------------------------------
  psk1                  96.81     0.275     1.050       5.279
  psk2                  96.68     0.678     2.496      13.039
  psk3                  96.93     1.136     4.390      21.765
  psk4                   0.00     0.000     0.000       0.000
  psk5                  96.81     0.245     0.874       4.814
  psk6                  96.66     0.215     0.793       4.186
  psk7                  96.90     0.999     2.970      21.409
  psk8                   0.00     0.000     0.000       0.000
  -----------------------------------------------------------
  System                72.60     3.547     0.000      70.492
  
  
  ********************
  Link Flow Summary
  ********************
  
  -----------------------------------------------------------------------------
                                 Maximum  Time of Max   Maximum    Max/    Max/
                                  |Flow|   Occurrence   |Veloc|    Full    Full
  Link                 Type          CMS  days hr:min     m/sec    Flow   Depth
  -----------------------------------------------------------------------------
  GQ1                  CONDUIT     0.355     0  04:19      1.98    0.93    0.71
  GQ2                  CONDUIT     1.680     0  05:00      2.80    0.80    0.73
  GQ3                  CONDUIT     1.050     0  05:00      7.26    0.04    0.14
  GQ4                  CONDUIT     0.510     0  04:28      1.80    1.00    1.00
  GQ5                  CONDUIT     1.208     0  04:32      2.40    1.00    1.00
  GQ6                  CONDUIT     0.472     0  05:00      1.35    0.21    0.66
  GQ7                  CONDUIT     1.675     0  05:02      3.56    1.00    1.00
  GQ8                  CONDUIT     1.045     0  05:01      2.08    1.00    1.00
  GQ9                  CONDUIT     2.837     0  04:44      5.74    1.00    1.00
  GQ10                 CONDUIT     1.135     0  11:22      4.10    1.04    1.00
  GQ11                 CONDUIT     0.335     0  05:00      2.25    0.36    0.62
  GQ12                 CONDUIT     0.412     0  05:00      1.85    0.45    0.73
  GQ13                 CONDUIT     0.241     0  05:00      0.75    0.11    0.61
  GQ14                 CONDUIT     0.131     0  05:00      1.24    0.19    0.27
  GQ15                 CONDUIT     0.247     0  05:00      4.42    1.00    0.77
  GQ16                 CONDUIT     1.971     0  05:00      4.11    0.95    0.64
  GQ17                 CONDUIT     0.626     0  05:00      2.26    0.20    0.54
  GQ18                 CONDUIT     1.111     0  05:00      2.50    5.01    0.89
  GQ19                 CONDUIT     0.851     0  05:00      2.73    0.10    0.42
  GQ20                 CONDUIT     0.187     0  05:00      0.55    0.10    0.61
  GQ21                 CONDUIT     0.690     0  05:00      1.67    0.21    0.66
  GQ22                 CONDUIT     0.700     0  05:00      1.90    0.21    0.66
  GQ23                 CONDUIT     1.590     0  05:00      2.33    0.78    1.00
  GQ24                 CONDUIT     2.020     0  04:45      4.02    1.00    1.00
  GQ25                 CONDUIT     1.058     0  05:00      4.11    1.19    0.88
  GQ26                 CONDUIT     0.756     0  04:26      2.94    0.89    0.88
  GQ27                 CONDUIT     0.997     0  04:40      3.52    1.00    1.00
  GQ28                 CONDUIT     0.356     0  05:00      0.85    0.38    0.78
  GQ29                 CONDUIT     1.703     0  05:00      3.39    0.79    1.00
  GQ30                 CONDUIT     0.824     0  04:20      2.91    1.00    1.00
  GQ31                 CONDUIT     0.747     0  04:47      2.64    1.00    1.00
  GQ32                 CONDUIT     0.739     0  04:25      2.98    1.19    1.00
  GQ33                 CONDUIT     1.434     0  04:29      5.07    1.00    1.00
  GQ34                 CONDUIT     0.518     0  05:00      1.92    0.81    0.91
  GQ35                 CONDUIT     0.711     0  04:12      2.53    1.32    1.00
  GQ36                 CONDUIT     0.974     0  04:11      3.45    1.21    1.00
  GQ37                 CONDUIT     0.699     0  04:56      2.47    1.00    1.00
  GQ38                 CONDUIT     0.207     0  05:00      0.94    0.30    0.73
  GQ39                 CONDUIT     0.782     0  04:30      2.76    1.00    1.00
  GQ40                 CONDUIT     0.804     0  04:59      2.84    1.00    1.00
  GQ41                 CONDUIT     2.055     0  05:00      2.62    0.95    1.00
  GQ42                 CONDUIT     1.359     0  04:38      2.70    1.00    1.00
  GQ43                 CONDUIT     2.297     0  04:13      4.70    1.03    1.00
  GQ44                 CONDUIT     0.946     0  04:26      1.88    1.00    1.00
  GQ45                 CONDUIT     1.351     0  05:00      3.22    0.55    0.78
  GQ46                 CONDUIT     1.068     0  04:27      2.12    1.00    1.00
  GQ47                 CONDUIT     0.286     0  05:00      1.40    0.27    0.68
  GQ48                 CONDUIT     0.284     0  05:00      1.39    0.27    0.68
  GQ49                 CONDUIT     1.191     0  05:00      5.35    0.45    0.73
  GQ50                 CONDUIT     0.342     0  05:00      1.54    0.45    0.73
  GQ51                 CONDUIT     0.995     0  04:21      3.62    1.52    1.00
  GQ52                 CONDUIT     0.852     0  05:01      1.70    1.14    1.00
  GQ53                 CONDUIT     2.225     0  04:29      2.83    1.00    1.00
  GQ54                 CONDUIT     0.708     0  05:00      2.99    0.61    0.78
  GQ55                 CONDUIT     0.529     0  05:00      2.47    0.36    0.71
  GQ56                 CONDUIT     1.996     0  04:10      4.21    1.09    1.00
  GQ57                 CONDUIT     1.059     0  05:00      2.43    0.69    0.81
  GQ58                 CONDUIT     2.227     0  05:00      5.12    0.70    0.81
  GQ59                 CONDUIT     1.203     0  04:35      2.39    1.00    1.00
  GQ60                 CONDUIT     3.018     0  04:16      1.92    0.73    1.00
  GQ61                 CONDUIT     0.441     0  05:00      0.42    0.06    0.58
  GQ62                 CONDUIT     0.945     0  05:00      0.70    0.09    0.60
  GQ63                 CONDUIT     2.177     0  05:00      1.14    0.06    0.59
  GQ64                 CONDUIT     0.154     0  05:00      1.63    0.12    0.40
  GQ65                 CONDUIT     0.066     0  05:00      0.41    0.12    0.60
  GQ66                 CONDUIT     0.271     0  05:00      0.87    0.08    0.60
  GQ67                 CONDUIT     1.422     0  05:00      1.26    0.99    1.00
  GQ68                 CONDUIT     1.507     0  05:00      2.41    0.48    0.74
  GQ69                 CONDUIT     2.456     0  05:00      5.33    0.88    0.86
  GQ70                 CONDUIT     0.793     0  05:00      9.19    0.11    0.23
  GQ71                 CONDUIT     0.874     0  05:00      6.48    0.21    0.31
  GQ72                 CONDUIT     2.970     0  05:00      5.78    0.71    0.62
  GQ73                 CONDUIT     2.496     0  05:00     14.39    0.16    0.27
  GQ74                 CONDUIT     0.554     0  05:00      1.68    0.10    0.50
  GQ75                 CONDUIT     0.562     0  05:00      1.06    0.16    0.64
  GQ76                 CONDUIT     4.390     0  05:00      6.70    0.95    0.78
  GQ77                 CONDUIT     0.000     0  00:00      0.00    0.00    0.34
  GQ78                 CONDUIT     0.916     0  04:27      3.24    1.00    1.00
  GQ79                 CONDUIT     0.252     0  04:25      1.08    0.54    0.87
  GQ80                 CONDUIT     0.608     0  04:31      2.15    1.00    1.00
  GQ81                 CONDUIT     0.604     0  04:03      2.15    3.83    1.00
  GQ82                 CONDUIT     0.945     0  05:00      3.92    0.65    0.79
  GQ83                 CONDUIT     1.019     0  05:00      4.23    0.65    0.79
  GQ84                 CONDUIT     1.300     0  04:09      4.71    1.03    1.00
  GQ85                 CONDUIT     0.579     0  04:41      2.05    1.00    1.00
  GQ86                 CONDUIT     0.278     0  05:00      1.52    0.12    0.62
  GQ87                 CONDUIT     0.098     0  05:00      0.52    0.14    0.63
  GQ88                 CONDUIT     0.684     0  05:00      2.88    0.61    0.78
  GQ89                 CONDUIT     0.564     0  05:00      2.18    0.74    0.86
  GQ90                 CONDUIT     0.575     0  05:00      2.45    0.58    0.77
  GQ91                 CONDUIT     0.484     0  05:00      1.88    0.59    0.85
  GQ92                 CONDUIT     0.999     0  04:17      2.24    1.44    1.00
  GQ93                 CONDUIT     0.965     0  05:00      1.92    0.83    1.00
  GQ94                 CONDUIT     1.280     0  04:15      2.55    1.52    1.00
  GQ95                 CONDUIT     0.315     0  05:00      1.01    0.08    0.60
  GQ96                 CONDUIT     0.884     0  04:17      1.76    1.51    1.00
  GQ97                 CONDUIT     0.568     0  05:00      2.29    1.03    0.83
  GQ98                 CONDUIT     0.309     0  05:00      1.15    0.44    0.91
  GQ99                 CONDUIT     1.001     0  05:00      0.94    0.06    0.58
  GQ100                CONDUIT     0.698     0  05:00      3.31    1.20    0.70
  GQ101                CONDUIT     0.511     0  05:00      2.36    0.38    0.71
  GQ102                CONDUIT     2.045     0  05:00      4.83    0.62    0.79
  GQ103                CONDUIT     0.629     0  05:00      2.22    0.97    1.00
  GQ104                CONDUIT     1.389     0  04:24      5.02    1.01    1.00
  GQ105                CONDUIT     0.396     0  03:55      0.79    1.26    1.00
  GQ106                CONDUIT     0.541     0  05:00      2.34    0.54    0.76
  GQ107                CONDUIT     1.114     0  04:30      3.94    1.00    1.00
  GQ108                CONDUIT     0.829     0  04:46      1.65    1.00    1.00
  GQ109                CONDUIT     0.409     0  05:00      1.66    0.55    0.82
  GQ110                CONDUIT     0.690     0  05:00      1.38    0.10    0.61
  GQ111                CONDUIT     0.629     0  05:00      2.55    0.57    0.82
  GQ112                CONDUIT     1.897     0  05:00      3.43    0.34    0.52
  GQ113                CONDUIT     1.049     0  05:00      4.69    0.79    0.74
  GQ114                CONDUIT     0.627     0  05:00      1.00    0.26    0.74
  GQ115                CONDUIT     0.272     0  05:00      1.18    0.04    0.27
  GQ116                CONDUIT     0.389     0  05:00      0.83    0.05    0.58
  GQ117                CONDUIT     1.383     0  05:00      4.88    0.86    0.57
  GQ118                CONDUIT     0.523     0  05:00      2.41    0.18    0.58
  GQ119                CONDUIT     2.302     0  04:34      4.58    1.00    1.00
  GQ120                CONDUIT     0.000     0  00:00      0.00    0.00    0.50
  GQ121                CONDUIT     1.414     0  04:42      2.81    1.00    1.00
  GQ122                CONDUIT     0.783     0  05:00      2.36    0.14    0.63
  GQ123                CONDUIT     0.532     0  05:00      2.63    0.26    0.67
  GQ124                CONDUIT     0.328     0  05:00      1.22    0.14    0.61
  GQ125                CONDUIT     0.665     0  05:00      2.46    0.75    0.91
  GQ126                CONDUIT     0.821     0  05:00      3.22    0.78    0.85
  GQ127                CONDUIT     0.838     0  04:13      1.69    1.07    1.00
  GQ128                CONDUIT     2.785     0  05:00      3.16    0.61    0.82
  GQ129                CONDUIT     1.313     0  05:11      2.61    1.00    1.00
  GQ130                CONDUIT     1.073     0  04:35      3.79    1.00    1.00
  GQ131                CONDUIT     0.862     0  04:25      3.05    1.00    1.00
  
  
  ***************************
  Flow Classification Summary
  ***************************
  
  -------------------------------------------------------------------------------------
                      Adjusted    ---------- Fraction of Time in Flow Class ---------- 
                       /Actual         Up    Down  Sub   Sup   Up    Down  Norm  Inlet 
  Conduit               Length    Dry  Dry   Dry   Crit  Crit  Crit  Crit  Ltd   Ctrl  
  -------------------------------------------------------------------------------------
  GQ1                     1.00   0.03  0.00  0.00  0.22  0.75  0.00  0.00  0.00  0.00
  GQ2                     1.00   0.03  0.00  0.00  0.09  0.89  0.00  0.00  0.89  0.00
  GQ3                     1.00   0.03  0.00  0.00  0.00  0.97  0.00  0.00  0.20  0.00
  GQ4                     1.00   0.03  0.00  0.00  0.97  0.00  0.00  0.00  0.66  0.00
  GQ5                     1.00   0.03  0.00  0.00  0.97  0.00  0.00  0.00  0.81  0.00
  GQ6                     1.00   0.03  0.00  0.00  0.97  0.00  0.00  0.00  0.92  0.00
  GQ7                     1.00   0.03  0.00  0.00  0.29  0.68  0.00  0.00  0.08  0.00
  GQ8                     1.00   0.03  0.00  0.00  0.97  0.00  0.00  0.00  0.85  0.00
  GQ9                     1.00   0.03  0.00  0.00  0.81  0.16  0.00  0.00  0.85  0.00
  GQ10                    1.00   0.03  0.00  0.00  0.85  0.12  0.00  0.00  0.69  0.00
  GQ11                    1.00   0.03  0.00  0.00  0.39  0.58  0.00  0.00  0.89  0.00
  GQ12                    1.00   0.03  0.00  0.00  0.97  0.00  0.00  0.00  0.92  0.00
  GQ13                    1.00   0.03  0.00  0.00  0.97  0.00  0.00  0.00  0.92  0.00
  GQ14                    1.00   0.03  0.00  0.00  0.82  0.15  0.00  0.00  0.00  0.00
  GQ15                    1.00   0.03  0.00  0.00  0.00  0.97  0.00  0.00  0.01  0.00
  GQ16                    1.00   0.03  0.00  0.00  0.01  0.96  0.00  0.00  0.00  0.00
  GQ17                    1.00   0.03  0.00  0.00  0.64  0.33  0.00  0.00  0.92  0.00
  GQ18                    1.00   0.03  0.00  0.00  0.92  0.05  0.00  0.00  0.15  0.00
  GQ19                    1.00   0.03  0.00  0.00  0.56  0.41  0.00  0.00  0.92  0.00
  GQ20                    1.00   0.03  0.00  0.00  0.97  0.00  0.00  0.00  0.92  0.00
  GQ21                    1.00   0.03  0.00  0.00  0.60  0.37  0.00  0.00  0.92  0.00
  GQ22                    1.00   0.03  0.00  0.00  0.27  0.70  0.00  0.00  0.92  0.00
  GQ23                    1.00   0.03  0.00  0.00  0.23  0.74  0.00  0.00  0.10  0.00
  GQ24                    1.00   0.03  0.00  0.00  0.94  0.03  0.00  0.00  0.83  0.00
  GQ25                    1.00   0.03  0.00  0.00  0.00  0.97  0.00  0.00  0.01  0.00
  GQ26                    1.00   0.03  0.00  0.00  0.02  0.95  0.00  0.00  0.77  0.00
  GQ27                    1.00   0.03  0.00  0.00  0.84  0.13  0.00  0.00  0.82  0.00
  GQ28                    1.00   0.03  0.00  0.00  0.97  0.00  0.00  0.00  0.82  0.00
  GQ29                    1.00   0.03  0.00  0.00  0.97  0.00  0.00  0.00  0.24  0.00
  GQ30                    1.00   0.03  0.00  0.00  0.95  0.02  0.00  0.00  0.22  0.00
  GQ31                    1.00   0.03  0.00  0.00  0.97  0.00  0.00  0.00  0.83  0.00
  GQ32                    1.00   0.03  0.00  0.00  0.19  0.78  0.00  0.00  0.00  0.00
  GQ33                    1.00   0.03  0.00  0.00  0.75  0.22  0.00  0.00  0.80  0.00
  GQ34                    1.00   0.03  0.00  0.00  0.97  0.01  0.00  0.00  0.84  0.00
  GQ35                    1.00   0.03  0.00  0.00  0.28  0.69  0.00  0.00  0.53  0.00
  GQ36                    1.00   0.03  0.00  0.00  0.24  0.74  0.00  0.00  0.74  0.00
  GQ37                    1.00   0.03  0.00  0.00  0.97  0.00  0.00  0.00  0.82  0.00
  GQ38                    1.00   0.03  0.00  0.00  0.97  0.00  0.00  0.00  0.82  0.00
  GQ39                    1.00   0.03  0.00  0.00  0.94  0.03  0.00  0.00  0.81  0.00
  GQ40                    1.00   0.03  0.00  0.00  0.22  0.75  0.00  0.00  0.84  0.00
  GQ41                    1.00   0.03  0.00  0.00  0.97  0.00  0.00  0.00  0.80  0.00
  GQ42                    1.00   0.03  0.00  0.00  0.97  0.00  0.00  0.00  0.74  0.00
  GQ43                    1.00   0.03  0.00  0.00  0.26  0.71  0.00  0.00  0.81  0.00
  GQ44                    1.00   0.03  0.00  0.00  0.97  0.00  0.00  0.00  0.66  0.00
  GQ45                    1.00   0.03  0.00  0.00  0.26  0.71  0.00  0.00  0.85  0.00
  GQ46                    1.00   0.03  0.00  0.00  0.52  0.45  0.00  0.00  0.58  0.00
  GQ47                    1.00   0.03  0.00  0.00  0.97  0.00  0.00  0.00  0.92  0.00
  GQ48                    1.00   0.03  0.00  0.00  0.97  0.00  0.00  0.00  0.92  0.00
  GQ49                    1.00   0.03  0.00  0.00  0.71  0.26  0.00  0.00  0.92  0.00
  GQ50                    1.00   0.03  0.00  0.00  0.97  0.00  0.00  0.00  0.92  0.00
  GQ51                    1.00   0.03  0.00  0.00  0.19  0.78  0.00  0.00  0.57  0.00
  GQ52                    1.00   0.03  0.00  0.00  0.97  0.00  0.00  0.00  0.64  0.00
  GQ53                    1.00   0.03  0.00  0.00  0.97  0.00  0.00  0.00  0.76  0.00
  GQ54                    1.00   0.03  0.00  0.00  0.77  0.20  0.00  0.00  0.92  0.00
  GQ55                    1.00   0.03  0.00  0.00  0.78  0.19  0.00  0.00  0.92  0.00
  GQ56                    1.00   0.03  0.00  0.00  0.25  0.72  0.00  0.00  0.57  0.00
  GQ57                    1.00   0.03  0.00  0.00  0.97  0.00  0.00  0.00  0.89  0.00
  GQ58                    1.00   0.03  0.00  0.00  0.73  0.24  0.00  0.00  0.92  0.00
  GQ59                    1.00   0.03  0.00  0.00  0.97  0.00  0.00  0.00  0.76  0.00
  GQ60                    1.00   0.03  0.00  0.00  0.97  0.00  0.00  0.00  0.26  0.00
  GQ61                    1.00   0.03  0.00  0.00  0.97  0.00  0.00  0.00  0.92  0.00
  GQ62                    1.00   0.03  0.00  0.00  0.97  0.00  0.00  0.00  0.92  0.00
  GQ63                    1.00   0.03  0.00  0.00  0.97  0.00  0.00  0.00  0.92  0.00
  GQ64                    1.00   0.03  0.00  0.00  0.39  0.58  0.00  0.00  0.92  0.00
  GQ65                    1.00   0.03  0.00  0.00  0.97  0.00  0.00  0.00  0.92  0.00
  GQ66                    1.00   0.03  0.00  0.00  0.97  0.00  0.00  0.00  0.92  0.00
  GQ67                    1.00   0.03  0.00  0.00  0.97  0.00  0.00  0.00  0.22  0.00
  GQ68                    1.00   0.03  0.00  0.00  0.97  0.00  0.00  0.00  0.92  0.00
  GQ69                    1.00   0.03  0.00  0.00  0.71  0.26  0.00  0.00  0.92  0.00
  GQ70                    1.00   0.03  0.00  0.00  0.00  0.96  0.00  0.00  0.14  0.00
  GQ71                    1.00   0.03  0.00  0.00  0.00  0.97  0.00  0.00  0.38  0.00
  GQ72                    1.00   0.03  0.00  0.00  0.00  0.97  0.00  0.00  0.17  0.00
  GQ73                    1.00   0.03  0.00  0.00  0.00  0.96  0.00  0.00  0.15  0.00
  GQ74                    1.00   0.03  0.00  0.00  0.86  0.11  0.00  0.00  0.92  0.00
  GQ75                    1.00   0.03  0.00  0.00  0.97  0.00  0.00  0.00  0.92  0.00
  GQ76                    1.00   0.03  0.00  0.00  0.00  0.97  0.00  0.00  0.14  0.00
  GQ77                    1.00   0.03  0.97  0.00  0.00  0.00  0.00  0.00  0.00  0.00
  GQ78                    1.00   0.03  0.00  0.00  0.94  0.03  0.00  0.00  0.80  0.00
  GQ79                    1.00   0.03  0.00  0.00  0.97  0.00  0.00  0.00  0.22  0.00
  GQ80                    1.00   0.03  0.00  0.00  0.97  0.00  0.00  0.00  0.71  0.00
  GQ81                    1.00   0.03  0.00  0.00  0.97  0.00  0.00  0.00  0.00  0.00
  GQ82                    1.00   0.03  0.00  0.00  0.70  0.27  0.00  0.00  0.92  0.00
  GQ83                    1.00   0.03  0.00  0.00  0.00  0.97  0.00  0.00  0.92  0.00
  GQ84                    1.00   0.03  0.00  0.00  0.37  0.60  0.00  0.00  0.83  0.00
  GQ85                    1.00   0.03  0.00  0.00  0.97  0.00  0.00  0.00  0.73  0.00
  GQ86                    1.00   0.03  0.00  0.00  0.97  0.00  0.00  0.00  0.92  0.00
  GQ87                    1.00   0.03  0.00  0.00  0.97  0.00  0.00  0.00  0.92  0.00
  GQ88                    1.00   0.03  0.00  0.00  0.78  0.19  0.00  0.00  0.92  0.00
  GQ89                    1.00   0.03  0.00  0.00  0.97  0.00  0.00  0.00  0.85  0.00
  GQ90                    1.00   0.03  0.00  0.00  0.77  0.20  0.00  0.00  0.92  0.00
  GQ91                    1.00   0.03  0.00  0.00  0.97  0.00  0.00  0.00  0.85  0.00
  GQ92                    1.00   0.03  0.00  0.00  0.85  0.12  0.00  0.00  0.01  0.00
  GQ93                    1.00   0.03  0.00  0.00  0.97  0.00  0.00  0.00  0.82  0.00
  GQ94                    1.00   0.03  0.00  0.00  0.54  0.43  0.00  0.00  0.04  0.00
  GQ95                    1.00   0.03  0.00  0.00  0.97  0.00  0.00  0.00  0.92  0.00
  GQ96                    1.00   0.03  0.00  0.00  0.97  0.00  0.00  0.00  0.46  0.00
  GQ97                    1.00   0.03  0.00  0.00  0.13  0.84  0.00  0.00  0.24  0.00
  GQ98                    1.00   0.03  0.00  0.00  0.97  0.00  0.00  0.00  0.81  0.00
  GQ99                    1.00   0.03  0.00  0.00  0.97  0.00  0.00  0.00  0.92  0.00
  GQ100                   1.00   0.03  0.00  0.00  0.01  0.96  0.00  0.00  0.00  0.00
  GQ101                   1.00   0.03  0.00  0.00  0.78  0.19  0.00  0.00  0.92  0.00
  GQ102                   1.00   0.03  0.00  0.00  0.72  0.25  0.00  0.00  0.92  0.00
  GQ103                   1.00   0.03  0.00  0.00  0.97  0.00  0.00  0.00  0.83  0.00
  GQ104                   1.00   0.03  0.00  0.00  0.83  0.14  0.00  0.00  0.85  0.00
  GQ105                   1.00   0.03  0.00  0.00  0.97  0.00  0.00  0.00  0.21  0.00
  GQ106                   1.00   0.03  0.00  0.00  0.80  0.17  0.00  0.00  0.92  0.00
  GQ107                   1.00   0.03  0.00  0.00  0.83  0.14  0.00  0.00  0.82  0.00
  GQ108                   1.00   0.03  0.00  0.00  0.97  0.00  0.00  0.00  0.24  0.00
  GQ109                   1.00   0.03  0.00  0.00  0.87  0.11  0.00  0.00  0.83  0.00
  GQ110                   1.00   0.03  0.00  0.00  0.97  0.00  0.00  0.00  0.92  0.00
  GQ111                   1.00   0.03  0.00  0.00  0.79  0.18  0.00  0.00  0.84  0.00
  GQ112                   1.00   0.03  0.00  0.00  0.00  0.97  0.00  0.00  0.90  0.00
  GQ113                   1.00   0.03  0.00  0.00  0.00  0.97  0.00  0.00  0.87  0.00
  GQ114                   1.00   0.03  0.00  0.00  0.97  0.00  0.00  0.00  0.23  0.00
  GQ115                   1.00   0.03  0.00  0.00  0.95  0.02  0.00  0.00  0.92  0.00
  GQ116                   1.00   0.03  0.00  0.00  0.97  0.00  0.00  0.00  0.92  0.00
  GQ117                   1.00   0.03  0.00  0.00  0.00  0.97  0.00  0.00  0.00  0.00
  GQ118                   1.00   0.03  0.00  0.00  0.54  0.43  0.00  0.00  0.92  0.00
  GQ119                   1.00   0.03  0.00  0.00  0.85  0.12  0.00  0.00  0.80  0.00
  GQ120                   1.00   0.03  0.11  0.00  0.86  0.00  0.00  0.00  0.00  0.00
  GQ121                   1.00   0.03  0.00  0.00  0.97  0.00  0.00  0.00  0.23  0.00
  GQ122                   1.00   0.03  0.00  0.00  0.70  0.26  0.00  0.00  0.91  0.00
  GQ123                   1.00   0.03  0.00  0.00  0.70  0.27  0.00  0.00  0.92  0.00
  GQ124                   1.00   0.03  0.00  0.00  0.97  0.00  0.00  0.00  0.91  0.00
  GQ125                   1.00   0.03  0.00  0.00  0.96  0.01  0.00  0.00  0.84  0.00
  GQ126                   1.00   0.03  0.00  0.00  0.77  0.20  0.00  0.00  0.86  0.00
  GQ127                   1.00   0.03  0.00  0.00  0.97  0.00  0.00  0.00  0.54  0.00
  GQ128                   1.00   0.03  0.00  0.00  0.27  0.70  0.00  0.00  0.71  0.00
  GQ129                   1.00   0.03  0.00  0.00  0.97  0.00  0.00  0.00  0.68  0.00
  GQ130                   1.00   0.03  0.00  0.00  0.88  0.09  0.00  0.00  0.68  0.00
  GQ131                   1.00   0.03  0.00  0.00  0.94  0.03  0.00  0.00  0.82  0.00
  
  
  *************************
  Conduit Surcharge Summary
  *************************
  
  ----------------------------------------------------------------------------
                                                           Hours        Hours 
                         --------- Hours Full --------   Above Full   Capacity
  Conduit                Both Ends  Upstream  Dnstream   Normal Flow   Limited
  ----------------------------------------------------------------------------
  GQ1                         0.01      0.74      0.01      0.01         0.01
  GQ4                         2.30      2.30      8.19      0.01         0.01
  GQ5                         0.99      0.99      8.09      0.01         0.01
  GQ6                         0.01      0.01      0.99      0.01         0.01
  GQ7                         1.35      1.35      1.83      0.01         0.01
  GQ8                         0.51      0.51      1.35      0.01         0.01
  GQ9                         0.51      0.51      8.44      0.01         0.01
  GQ10                        2.62      2.62      8.52      0.10         0.01
  GQ12                        0.01      0.01      3.83      0.01         0.01
  GQ13                        0.01      0.01      1.88      0.01         0.01
  GQ16                        0.01      0.71      0.01      0.01         0.01
  GQ18                        0.01      0.01      3.15      3.54         0.01
  GQ20                        0.01      0.01      0.88      0.01         0.01
  GQ21                        0.01      0.01      0.88      0.01         0.01
  GQ22                        0.01      0.01      0.63      0.01         0.01
  GQ23                        0.63      0.63      0.78      0.01         0.01
  GQ24                        0.85      0.85      8.32      0.01         0.01
  GQ25                        0.01      0.85      0.01      0.85         0.01
  GQ26                        0.01      0.01      0.93      0.01         0.01
  GQ27                        0.93      0.93      7.96      0.01         0.01
  GQ28                        0.01      0.01      8.13      0.01         0.01
  GQ29                        7.90      7.90      8.13      0.01         0.01
  GQ30                        7.96      7.96      8.23      0.01         0.01
  GQ31                        0.85      0.85      8.55      0.01         0.01
  GQ32                        0.65      1.10      0.65      0.82         0.42
  GQ33                        1.10      1.10      8.55      0.01         0.01
  GQ34                        0.01      0.01      1.10      0.01         0.01
  GQ35                        1.04      1.08      1.10      0.12         0.01
  GQ36                        1.06      1.08      1.09      1.12         1.04
  GQ37                        0.65      0.65      8.41      0.01         0.01
  GQ38                        0.01      0.01      8.41      0.01         0.01
  GQ39                        0.95      0.95      3.83      0.01         0.01
  GQ40                        0.65      0.65      0.95      0.01         0.01
  GQ41                        0.71      0.71      8.10      0.01         0.01
  GQ42                        1.32      1.32      8.18      0.01         0.01
  GQ43                        1.17      1.17      1.32      0.04         0.01
  GQ44                        2.26      2.26      3.15      0.01         0.01
  GQ45                        0.01      0.01      1.55      0.01         0.01
  GQ46                        1.55      1.55      2.26      0.01         0.01
  GQ47                        0.01      0.01      8.21      0.01         0.01
  GQ48                        0.01      0.01      8.30      0.01         0.01
  GQ49                        0.01      0.01      8.30      0.01         0.01
  GQ50                        0.01      0.01      0.93      0.01         0.01
  GQ51                        0.74      0.93      0.74      1.00         0.74
  GQ52                        0.58      0.58      7.90      0.52         0.52
  GQ53                        1.23      1.23      8.22      0.01         0.01
  GQ54                        0.01      0.01      8.32      0.01         0.01
  GQ55                        0.01      0.01      8.32      0.01         0.01
  GQ56                        1.13      1.17      1.35      0.16         0.03
  GQ57                        0.01      0.01      1.17      0.01         0.01
  GQ58                        0.01      0.01      8.01      0.01         0.01
  GQ59                        1.32      1.32      8.01      0.01         0.01
  GQ60                        0.97      0.97      1.54      0.01         0.01
  GQ61                        0.01      0.01      7.80      0.01         0.01
  GQ62                        0.01      0.01      7.82      0.01         0.01
  GQ63                        0.01      0.01      7.83      0.01         0.01
  GQ66                        0.01      0.01      7.86      0.01         0.01
  GQ67                        7.81      7.81      7.83      0.01         0.01
  GQ68                        0.01      0.01      7.91      0.01         0.01
  GQ69                        0.01      0.01      8.17      0.01         0.01
  GQ75                        0.01      0.01      7.91      0.01         0.01
  GQ78                        1.17      1.17      8.37      0.01         0.01
  GQ79                        0.01      0.01      8.37      0.01         0.01
  GQ80                        1.17      1.17      3.50      0.01         0.01
  GQ81                        3.46      3.50      3.83      3.27         0.78
  GQ82                        0.01      0.01      3.83      0.01         0.01
  GQ83                        0.01      0.01      0.83      0.01         0.01
  GQ84                        0.91      0.91      1.30      0.04         0.01
  GQ85                        0.91      0.91      8.59      0.01         0.01
  GQ86                        0.01      0.01      8.22      0.01         0.01
  GQ87                        0.01      0.01      8.22      0.01         0.01
  GQ88                        0.01      0.01      8.26      0.01         0.01
  GQ89                        0.01      0.01      7.95      0.01         0.01
  GQ90                        0.01      0.01      7.89      0.01         0.01
  GQ91                        0.01      0.01      8.03      0.01         0.01
  GQ92                        0.85      0.90      0.93      0.86         0.76
  GQ93                        0.93      0.93      1.13      0.01         0.01
  GQ94                        1.13      1.13      1.17      1.13         1.08
  GQ95                        0.01      0.01      8.34      0.01         0.01
  GQ96                        0.88      0.90      0.90      0.93         0.81
  GQ97                        0.01      0.01      0.01      0.54         0.01
  GQ98                        0.01      0.01      8.16      0.01         0.01
  GQ99                        0.01      0.01      7.84      0.01         0.01
  GQ100                       0.01      0.75      0.01      0.73         0.01
  GQ101                       0.01      0.01      8.03      0.01         0.01
  GQ102                       0.01      0.01      8.13      0.01         0.01
  GQ103                       0.78      0.78      8.27      0.01         0.01
  GQ104                       0.65      0.65      8.27      0.04         0.01
  GQ105                       8.07      8.07      8.13      4.32         0.01
  GQ106                       0.01      0.01      8.12      0.01         0.01
  GQ107                       0.95      0.95      8.12      0.01         0.01
  GQ108                       3.18      3.18      8.07      0.01         0.01
  GQ109                       0.01      0.01      0.95      0.01         0.01
  GQ110                       0.01      0.01      7.91      0.01         0.01
  GQ111                       0.01      0.01      8.03      0.01         0.01
  GQ114                       0.01      0.01      8.29      0.01         0.01
  GQ116                       0.01      0.01      8.21      0.01         0.01
  GQ119                       1.22      1.22      8.31      0.01         0.01
  GQ120                       0.01      0.01      8.24      0.01         0.01
  GQ121                       8.11      8.11      8.31      0.01         0.01
  GQ122                       0.01      0.01      8.11      0.01         0.01
  GQ123                       0.01      0.01      8.14      0.01         0.01
  GQ125                       0.01      0.01      8.03      0.01         0.01
  GQ126                       0.01      0.01      8.03      0.01         0.01
  GQ127                       1.17      1.17      1.22      0.11         0.08
  GQ128                       0.01      0.01      1.04      0.01         0.01
  GQ129                       1.83      1.83      8.32      0.01         0.01
  GQ130                       2.05      2.05      8.77      0.01         0.01
  GQ131                       0.93      0.93      8.57      0.01         0.01
  

  Analysis begun on:  Wed Mar 29 19:14:48 2023
  Analysis ended on:  Wed Mar 29 19:15:11 2023
  Total elapsed time: 00:00:23