
  OWA STORM WATER MANAGEMENT MODEL - VERSION v5.1.14 (OWA 2022-07-31)
  --------------------------------------------------------------

  INP file created by DSDAConvertToSwmmTools 
  version 0.0.1 EcoVista 
  Title/Notes: 
  
  
  *********************************************************
  NOTE: The summary statistics displayed in this report are
  based on results found at every computational time step,  
  not just on results from each reporting time step.
  *********************************************************
  
  ****************
  Analysis Options
  ****************
  Flow Units ............... CMS
  Process Models:
    Rainfall/Runoff ........ YES
    RDII ................... NO
    Snowmelt ............... NO
    Groundwater ............ NO
    Flow Routing ........... YES
    Ponding Allowed ........ NO
    Water Quality .......... NO
  Infiltration Method ...... GREEN_AMPT
  Flow Routing Method ...... DYNWAVE
  Surcharge Method ......... EXTRAN
  Starting Date ............ 07/15/2020 00:00:00
  Ending Date .............. 07/15/2020 14:00:00
  Antecedent Dry Days ...... 0.0
  Report Time Step ......... 00:30:00
  Wet Time Step ............ 00:05:00
  Dry Time Step ............ 01:00:00
  Routing Time Step ........ 30.00 sec
  Variable Time Step ....... YES
  Maximum Trials ........... 8
  Number of Threads ........ 1
  Head Tolerance ........... 0.001500 m
  
  
  **************************        Volume         Depth
  Runoff Quantity Continuity     hectare-m            mm
  **************************     ---------       -------
  Total Precipitation ......       131.484        32.900
  Evaporation Loss .........         4.886         1.223
  Infiltration Loss ........        35.139         8.792
  Surface Runoff ...........        83.689        20.941
  Final Storage ............         7.904         1.978
  Continuity Error (%) .....        -0.102
  
  
  **************************        Volume        Volume
  Flow Routing Continuity        hectare-m      10^6 ltr
  **************************     ---------     ---------
  Dry Weather Inflow .......         0.000         0.000
  Wet Weather Inflow .......        83.580       835.812
  Groundwater Inflow .......         0.000         0.000
  RDII Inflow ..............         0.000         0.000
  External Inflow ..........         0.000         0.000
  External Outflow .........         8.135        81.350
  Flooding Loss ............        73.854       738.543
  Evaporation Loss .........         0.000         0.000
  Exfiltration Loss ........         0.000         0.000
  Initial Stored Volume ....         0.000         0.000
  Final Stored Volume ......         1.402        14.017
  Continuity Error (%) .....         0.228
  
  
  *************************
  Highest Continuity Errors
  *************************
  Node jd51 (6.48%)
  Node jd64 (5.29%)
  Node jd59 (5.19%)
  Node jd31 (4.79%)
  Node jd55 (4.74%)
  
  
  ***************************
  Time-Step Critical Elements
  ***************************
  Link GQ73 (96.82%)
  
  
  ********************************
  Highest Flow Instability Indexes
  ********************************
  Link GQ67 (18)
  Link GQ29 (7)
  Link GQ121 (6)
  Link GQ114 (5)
  Link GQ44 (4)
  
  
  *************************
  Routing Time Step Summary
  *************************
  Minimum Time Step           :     2.72 sec
  Average Time Step           :     8.81 sec
  Maximum Time Step           :    30.00 sec
  Percent in Steady State     :    -0.00
  Average Iterations per Step :     3.87
  Percent Not Converging      :    15.42
  
  
  ***************************
  Subcatchment Runoff Summary
  ***************************
  
  ------------------------------------------------------------------------------------------------------------------------------
                            Total      Total      Total      Total     Imperv       Perv      Total       Total     Peak  Runoff
                           Precip      Runon       Evap      Infil     Runoff     Runoff     Runoff      Runoff   Runoff   Coeff
  Subcatchment                 mm         mm         mm         mm         mm         mm         mm    10^6 ltr      CMS
  ------------------------------------------------------------------------------------------------------------------------------
  1                         32.90       0.00       0.73      18.43      12.72       0.00      12.72        5.03     0.31   0.386
  2                         32.90       0.00       1.31       7.00      22.28       0.00      22.28       20.15     1.22   0.677
  3                         32.90       0.00       1.36       6.00      23.43       0.00      23.43        9.37     0.58   0.712
  4                         32.90       0.00       1.41       5.16      24.32       0.00      24.32        2.04     0.13   0.739
  5                         32.90       0.00       1.24       8.38      21.50       0.00      21.50        2.66     0.17   0.653
  6                         32.90       0.00       1.19       9.43      20.63       0.00      20.63        1.92     0.12   0.627
  7                         32.90       0.00       1.24       8.42      21.19       0.00      21.19        9.24     0.57   0.644
  8                         32.90       0.00       1.57       1.84      27.00       0.00      27.00        3.76     0.23   0.821
  9                         32.90       0.00       1.62       0.92      27.87       0.00      27.87        3.26     0.20   0.847
  10                        32.90       0.00       1.40       5.35      24.02       0.00      24.02        5.41     0.34   0.730
  11                        32.90       0.00       1.51       3.14      25.83       0.00      25.83       12.80     0.79   0.785
  12                        32.90       0.00       1.19       9.46      20.44       0.00      20.44        9.97     0.62   0.621
  13                        32.90       0.00       1.49       3.55      25.50       0.00      25.50       11.53     0.72   0.775
  14                        32.90       0.00       1.49       3.59      25.59       0.00      25.59        4.83     0.30   0.778
  15                        32.90       0.00       1.38       5.78      23.61       0.00      23.61        7.98     0.50   0.718
  16                        32.90       0.00       1.43       4.78      24.44       0.00      24.44        7.22     0.45   0.743
  17                        32.90       0.00       1.34       6.57      22.93       0.00      22.93        9.59     0.60   0.697
  18                        32.90       0.00       1.54       2.59      26.31       0.00      26.31       10.86     0.67   0.800
  19                        32.90       0.00       1.53       2.71      26.17       0.00      26.17        5.88     0.37   0.796
  20                        32.90       0.00       1.52       2.89      25.84       0.00      25.84       13.87     0.85   0.785
  21                        32.90       0.00       1.62       0.97      27.69       0.00      27.69        8.69     0.54   0.842
  22                        32.90       0.00       1.59       1.55      27.15       0.00      27.15        3.34     0.21   0.825
  23                        32.90       0.00       1.46       4.02      24.99       0.00      24.99       14.31     0.88   0.760
  24                        32.90       0.00       1.41       5.02      24.11       0.00      24.11        4.28     0.26   0.733
  25                        32.90       0.00       1.51       3.09      25.98       0.00      25.98        5.26     0.33   0.790
  26                        32.90       0.00       1.29       7.51      21.89       0.00      21.89        7.69     0.47   0.665
  27                        32.90       0.00       1.54       2.46      26.21       0.00      26.21       11.08     0.68   0.797
  28                        32.90       0.00       1.58       1.81      26.86       0.00      26.86       12.70     0.78   0.816
  29                        32.90       0.00       1.41       5.11      24.28       0.00      24.28        5.67     0.35   0.738
  30                        32.90       0.00       1.61       1.11      27.83       0.00      27.83        2.00     0.12   0.846
  31                        32.90       0.00       1.63       0.69      27.98       0.00      27.98        6.17     0.38   0.850
  32                        32.90       0.00       1.59       1.47      27.27       0.00      27.27       11.78     0.73   0.829
  33                        32.90       0.00       1.61       1.07      27.56       0.00      27.56        9.71     0.60   0.838
  34                        32.90       0.00       1.50       3.33      25.69       0.00      25.69        7.53     0.47   0.781
  35                        32.90       0.00       1.54       2.48      26.40       0.00      26.40       10.95     0.68   0.803
  36                        32.90       0.00       1.27       7.84      21.87       0.00      21.87        8.61     0.53   0.665
  37                        32.90       0.00       1.58       1.78      27.00       0.00      27.00        5.99     0.37   0.821
  38                        32.90       0.00       1.48       3.72      25.37       0.00      25.37        9.68     0.60   0.771
  39                        32.90       0.00       1.34       6.54      22.98       0.00      22.98        9.70     0.60   0.699
  40                        32.90       0.00       1.49       3.56      25.50       0.00      25.50        5.83     0.36   0.775
  41                        32.90       0.00       1.52       2.90      26.17       0.00      26.17        5.16     0.32   0.795
  42                        32.90       0.00       1.52       2.92      25.86       0.00      25.86        6.39     0.39   0.786
  43                        32.90       0.00       1.28       7.69      21.83       0.00      21.83       17.25     1.06   0.663
  44                        32.90       0.00       1.36       6.00      23.28       0.00      23.28       11.25     0.69   0.708
  45                        32.90       0.00       1.28       7.63      21.94       0.00      21.94       15.88     0.98   0.667
  46                        32.90       0.00       1.24       8.50      21.35       0.00      21.35       10.67     0.66   0.649
  47                        32.90       0.00       1.30       7.28      22.24       0.00      22.24       25.93     1.60   0.676
  48                        32.90       0.00       1.55       2.28      26.34       0.00      26.34       15.28     0.93   0.801
  49                        32.90       0.00       1.42       4.87      24.13       0.00      24.13       16.33     1.00   0.733
  50                        32.90       0.00       1.57       1.85      26.53       0.00      26.53       10.43     0.62   0.806
  51                        32.90       0.00       1.51       3.20      25.44       0.00      25.44        4.76     0.29   0.773
  52                        32.90       0.00       0.73      18.46      12.75       0.00      12.75       13.08     0.81   0.388
  53                        32.90       0.00       1.06      11.98      18.35       0.00      18.35       19.55     1.21   0.558
  54                        32.90       0.00       1.31       7.08      22.49       0.00      22.49        5.48     0.34   0.684
  55                        32.90       0.00       0.75      18.12      13.04       0.00      13.04       10.29     0.64   0.396
  56                        32.90       0.00       0.28      27.33       5.01       0.00       5.01        4.08     0.25   0.152
  57                        32.90       0.00       1.48       3.66      25.17       0.00      25.17       20.91     1.28   0.765
  58                        32.90       0.00       1.37       5.81      23.58       0.00      23.58        3.88     0.24   0.717
  59                        32.90       0.00       1.34       6.46      23.18       0.00      23.18        2.95     0.18   0.705
  60                        32.90       0.00       0.50      22.99       8.81       0.00       8.81        2.52     0.15   0.268
  61                        32.90       0.00       0.78      17.49      13.48       0.00      13.48        5.08     0.32   0.410
  62                        32.90       0.00       1.09      11.45      18.63       0.00      18.63       21.83     1.34   0.566
  63                        32.90       0.00       1.48       3.63      25.08       0.00      25.08       48.49     2.92   0.762
  64                        32.90       0.00       1.11      11.06      19.11       0.00      19.11        4.10     0.25   0.581
  65                        32.90       0.00       1.51       3.21      25.47       0.00      25.47       17.13     1.04   0.774
  66                        32.90       0.00       1.19       9.52      20.25       0.00      20.25        5.16     0.32   0.615
  67                        32.90       0.00       1.11      11.05      19.18       0.00      19.18        6.20     0.38   0.583
  68                        32.90       0.00       1.33       6.68      22.88       0.00      22.88        2.54     0.16   0.696
  69                        32.90       0.00       0.78      17.51      13.65       0.00      13.65        4.37     0.27   0.415
  70                        32.90       0.00       1.10      11.24      18.86       0.00      18.86       15.52     0.96   0.573
  71                        32.90       0.00       1.36       6.15      23.33       0.00      23.33        2.86     0.18   0.709
  72                        32.90       0.00       1.43       4.70      24.59       0.00      24.59        3.06     0.19   0.747
  73                        32.90       0.00       1.30       7.35      22.39       0.00      22.39        3.72     0.23   0.680
  74                        32.90       0.00       1.24       8.54      21.32       0.00      21.32        4.59     0.29   0.648
  75                        32.90       0.00       1.37       5.83      23.63       0.00      23.63        3.41     0.21   0.718
  76                        32.90       0.00       1.44       4.42      24.88       0.00      24.88        2.41     0.15   0.756
  77                        32.90       0.00       1.54       2.53      26.42       0.00      26.42        2.86     0.18   0.803
  78                        32.90       0.00       1.49       3.60      25.47       0.00      25.47        2.80     0.17   0.774
  79                        32.90       0.00       0.65      20.05      11.37       0.00      11.37       12.06     0.74   0.346
  80                        32.90       0.00       1.23       8.68      21.00       0.00      21.00       13.14     0.81   0.638
  81                        32.90       0.00       1.25       8.30      21.31       0.00      21.31        9.29     0.57   0.648
  82                        32.90       0.00       1.19       9.34      20.42       0.00      20.42       18.72     1.15   0.621
  83                        32.90       0.00       1.49       3.45      25.68       0.00      25.68        3.14     0.20   0.781
  84                        32.90       0.00       1.41       5.11      24.17       0.00      24.17        2.89     0.18   0.735
  85                        32.90       0.00       1.66       0.25      28.49       0.00      28.49        2.65     0.17   0.866
  86                        32.90       0.00       1.53       2.78      26.22       0.00      26.22        3.86     0.24   0.797
  87                        32.90       0.00       1.63       0.70      27.92       0.00      27.92        3.67     0.23   0.849
  88                        32.90       0.00       1.46       4.10      25.13       0.00      25.13        2.41     0.15   0.764
  89                        32.90       0.00       1.53       2.64      26.37       0.00      26.37        5.08     0.32   0.802
  90                        32.90       0.00       1.67       0.01      28.78       0.00      28.78        0.33     0.02   0.875
  91                        32.90       0.00       1.39       5.51      23.59       0.00      23.59        5.14     0.31   0.717
  92                        32.90       0.00       1.54       2.56      26.41       0.00      26.41        3.30     0.21   0.803
  93                        32.90       0.00       1.25       8.17      21.52       0.00      21.52       11.02     0.68   0.654
  94                        32.90       0.00       1.13      10.66      19.62       0.00      19.62        1.37     0.09   0.596
  95                        32.90       0.00       1.67       0.04      28.66       0.00      28.66        0.63     0.04   0.871
  96                        32.90       0.00       1.35       6.37      23.18       0.00      23.18        2.83     0.18   0.705
  97                        32.90       0.00       1.63       0.70      28.04       0.00      28.04        2.78     0.17   0.852
  98                        32.90       0.00       1.35       6.22      23.33       0.00      23.33        2.88     0.18   0.709
  99                        32.90       0.00       0.67      19.68      11.72       0.00      11.72        4.35     0.27   0.356
  100                       32.90       0.00       0.75      18.21      13.02       0.00      13.02        3.34     0.21   0.396
  101                       32.90       0.00       0.76      17.85      13.29       0.00      13.29        6.51     0.40   0.404
  102                       32.90       0.00       1.24       8.37      21.40       0.00      21.40        5.22     0.32   0.651
  103                       32.90       0.00       0.42      24.70       7.34       0.00       7.34        2.67     0.16   0.223
  104                       32.90       0.00       0.28      27.35       4.96       0.00       4.96        4.80     0.29   0.151
  105                       32.90       0.00       1.37       5.84      23.66       0.00      23.66        3.09     0.19   0.719
  106                       32.90       0.00       0.74      18.24      12.95       0.00      12.95        3.16     0.19   0.394
  
  
  ******************
  Node Depth Summary
  ******************
  
  ---------------------------------------------------------------------------------
                                 Average  Maximum  Maximum  Time of Max    Reported
                                   Depth    Depth      HGL   Occurrence   Max Depth
  Node                 Type       Meters   Meters   Meters  days hr:min      Meters
  ---------------------------------------------------------------------------------
  jd1                  JUNCTION     0.09     0.15   273.15     0  06:00        0.15
  jd2                  JUNCTION     0.24     0.41   267.41     0  06:00        0.41
  jd3                  JUNCTION     2.75     3.00   266.00     0  02:54        3.00
  jd4                  JUNCTION     1.05     3.00   270.00     0  05:28        3.00
  jd5                  JUNCTION     0.07     0.11   274.11     0  06:00        0.11
  jd6                  JUNCTION     0.08     0.13   275.13     0  06:00        0.13
  jd7                  JUNCTION     0.28     0.43   264.53     0  06:00        0.43
  jd8                  JUNCTION     1.69     3.00   267.00     0  05:16        3.00
  jd9                  JUNCTION     1.27     3.00   268.00     0  05:16        3.00
  jd10                 JUNCTION     2.76     3.00   273.00     0  02:47        3.00
  jd11                 JUNCTION     0.07     0.12   282.12     0  06:00        0.12
  jd12                 JUNCTION     2.80     3.00   272.00     0  02:27        3.00
  jd13                 JUNCTION     0.09     0.15   289.15     0  06:00        0.15
  jd14                 JUNCTION     0.19     0.33   280.33     0  06:00        0.33
  jd15                 JUNCTION     0.20     0.34   278.34     0  06:00        0.34
  jd16                 JUNCTION     0.22     0.37   274.37     0  06:00        0.37
  jd17                 JUNCTION     2.24     3.00   278.80     0  05:08        3.00
  jd18                 JUNCTION     0.19     0.37   279.37     0  06:00        0.37
  jd19                 JUNCTION     0.75     3.00   270.00     0  05:23        2.87
  jd20                 JUNCTION     0.17     0.24   273.24     0  06:00        0.24
  jd21                 JUNCTION     2.72     3.00   273.00     0  04:35        3.00
  jd22                 JUNCTION     1.37     2.96   274.96     0  06:00        2.96
  jd23                 JUNCTION     0.17     0.29   278.29     0  06:00        0.29
  jd24                 JUNCTION     0.10     0.17   285.17     0  06:00        0.17
  jd25                 JUNCTION     0.17     0.29   279.29     0  06:00        0.29
  jd26                 JUNCTION     0.19     0.33   285.33     0  06:00        0.33
  jd27                 JUNCTION     0.16     0.26   291.26     0  06:00        0.26
  jd28                 JUNCTION     2.83     3.00   290.00     0  02:10        3.00
  jd29                 JUNCTION     0.07     0.12   299.12     0  06:00        0.12
  jd30                 JUNCTION     0.09     0.16   290.16     0  06:00        0.16
  jd31                 JUNCTION     0.90     1.45   273.45     0  04:35        1.13
  jd32                 JUNCTION     2.82     3.00   275.00     0  02:17        3.00
  jd33                 JUNCTION     0.14     0.23   289.23     0  06:00        0.23
  jd34                 JUNCTION     0.16     0.27   294.27     0  06:00        0.27
  jd35                 JUNCTION     2.86     3.00   292.00     0  01:55        3.00
  jd36                 JUNCTION     0.23     0.42   299.42     0  06:00        0.42
  jd37                 JUNCTION     0.22     0.40   303.40     0  06:00        0.40
  jd38                 JUNCTION     0.27     0.47   297.47     0  06:00        0.47
  jd39                 JUNCTION     2.76     3.00   297.00     0  02:52        3.00
  jd40                 JUNCTION     0.51     3.00   302.00     0  05:38        3.00
  jd41                 JUNCTION     2.55     3.00   296.00     0  05:08        3.00
  jd42                 JUNCTION     0.15     0.24   305.24     0  06:00        0.24
  jd43                 JUNCTION     0.45     3.00   300.00     0  05:45        3.00
  jd44                 JUNCTION     0.49     3.00   286.00     0  05:42        2.72
  jd45                 JUNCTION     2.80     3.00   282.00     0  02:28        3.00
  jd46                 JUNCTION     0.20     0.34   275.34     0  06:00        0.34
  jd47                 JUNCTION     0.12     0.19   315.19     0  06:00        0.19
  jd48                 JUNCTION     0.08     0.14   325.14     0  06:00        0.14
  jd49                 JUNCTION     0.19     0.31   289.31     0  06:00        0.31
  jd50                 JUNCTION     2.84     3.00   278.00     0  02:05        3.00
  jd51                 JUNCTION     2.49     3.00   313.00     0  05:15        3.00
  jd52                 JUNCTION     0.29     0.52   323.52     0  06:00        0.52
  jd53                 JUNCTION     0.29     0.56   322.56     0  06:00        0.56
  jd54                 JUNCTION     0.21     0.35   326.35     0  06:00        0.35
  jd55                 JUNCTION     1.23     1.69   323.69     0  06:00        1.69
  jd56                 JUNCTION     0.13     0.23   327.23     0  06:00        0.23
  jd59                 JUNCTION     2.46     3.00   320.80     0  05:19        3.00
  jd60                 JUNCTION     2.80     3.00   319.00     0  02:26        3.00
  jd61                 JUNCTION     0.11     0.18   329.18     0  06:00        0.18
  jd62                 JUNCTION     0.05     0.08   335.08     0  06:00        0.08
  jd63                 JUNCTION     0.05     0.09   324.09     0  06:00        0.09
  jd64                 JUNCTION     2.27     3.00   321.00     0  05:19        2.82
  jd65                 JUNCTION     1.89     3.00   307.00     0  05:14        3.00
  jd66                 JUNCTION     2.74     3.00   304.00     0  03:01        3.00
  jd69                 JUNCTION     0.17     0.29   333.29     0  06:00        0.29
  jd79                 JUNCTION     2.72     3.00   274.00     0  02:15        3.00
  jd80                 JUNCTION     2.30     3.00   279.00     0  05:04        3.00
  jd81                 JUNCTION     0.11     0.18   288.18     0  06:00        0.18
  jd83                 JUNCTION     2.87     3.00   323.00     0  01:52        3.00
  jd84                 JUNCTION     0.17     0.30   323.30     0  06:00        0.30
  jd85                 JUNCTION     2.74     3.00   324.00     0  02:57        3.00
  jd87                 JUNCTION     2.78     3.00   322.00     0  02:36        3.00
  jd89                 JUNCTION     0.12     0.20   324.20     0  06:00        0.20
  jd90                 JUNCTION     0.10     0.17   328.17     0  06:00        0.17
  jd92                 JUNCTION     0.10     0.17   326.17     0  06:00        0.17
  jd93                 JUNCTION     0.31     0.55   324.55     0  06:00        0.55
  jd94                 JUNCTION     0.18     0.31   326.51     0  06:00        0.31
  jd95                 JUNCTION     0.24     0.41   327.41     0  06:00        0.41
  jd96                 JUNCTION     2.79     3.00   308.00     0  02:37        3.00
  jd97                 JUNCTION     0.24     0.42   327.62     0  06:00        0.42
  jd98                 JUNCTION     0.14     0.23   329.23     0  06:00        0.23
  jd99                 JUNCTION     2.73     3.00   327.00     0  03:00        3.00
  jd101                JUNCTION     0.08     0.14   321.14     0  06:00        0.14
  jd102                JUNCTION     0.17     0.29   324.29     0  06:00        0.29
  jd103                JUNCTION     0.08     0.14   318.14     0  06:00        0.14
  jd106                JUNCTION     2.55     3.00   287.00     0  04:45        3.00
  jd107                JUNCTION     0.16     0.26   332.26     0  06:00        0.26
  jd108                JUNCTION     1.09     1.27   327.27     0  06:00        1.27
  jd109                JUNCTION     0.12     0.20   343.20     0  06:00        0.20
  jd110                JUNCTION     2.73     3.00   327.00     0  03:07        3.00
  jd111                JUNCTION     0.06     0.09   344.09     0  06:00        0.09
  jd112                JUNCTION     0.07     0.12   334.12     0  06:00        0.12
  jd113                JUNCTION     0.08     0.13   348.13     0  06:00        0.13
  jd114                JUNCTION     2.79     3.00   317.00     0  02:53        3.00
  jd117                JUNCTION     1.01     1.36   317.36     0  02:53        1.35
  jd118                JUNCTION     0.07     0.11   330.11     0  06:00        0.11
  jd120                JUNCTION     0.12     0.20   327.20     0  06:00        0.20
  jd121                JUNCTION     0.12     0.20   320.20     0  06:00        0.20
  jd122                JUNCTION     2.75     3.00   276.00     0  02:57        3.00
  jd123                JUNCTION     2.73     3.00   276.20     0  02:56        3.00
  jd124                JUNCTION     2.89     3.00   271.00     0  01:41        3.00
  jd125                JUNCTION     0.86     3.00   278.00     0  05:26        3.00
  jd126                JUNCTION     2.87     3.00   275.00     0  01:53        3.00
  jd135                JUNCTION     0.10     0.17   289.17     0  06:00        0.17
  jd136                JUNCTION     0.19     0.32   341.32     0  06:00        0.32
  psk1                 OUTFALL      0.07     0.12   279.12     0  06:00        0.12
  psk2                 OUTFALL      0.09     0.16   270.16     0  06:00        0.16
  psk3                 OUTFALL      0.22     0.37   271.37     0  06:00        0.37
  psk4                 OUTFALL      0.00     0.00   280.00     0  00:00        0.00
  psk5                 OUTFALL      0.09     0.15   263.15     0  06:00        0.15
  psk6                 OUTFALL      0.07     0.11   259.11     0  06:00        0.11
  psk7                 OUTFALL      0.28     0.43   262.43     0  06:00        0.43
  psk8                 OUTFALL      0.00     0.00   317.00     0  00:00        0.00
  
  
  *******************
  Node Inflow Summary
  *******************
  
  -------------------------------------------------------------------------------------------------
                                  Maximum  Maximum                  Lateral       Total        Flow
                                  Lateral    Total  Time of Max      Inflow      Inflow     Balance
                                   Inflow   Inflow   Occurrence      Volume      Volume       Error
  Node                 Type           CMS      CMS  days hr:min    10^6 ltr    10^6 ltr     Percent
  -------------------------------------------------------------------------------------------------
  jd1                  JUNCTION     0.310    0.499     0  06:00        5.03        8.22       0.224
  jd2                  JUNCTION     0.469    0.643     0  06:00        7.67        10.6       0.394
  jd3                  JUNCTION     0.568    1.713     0  06:00        9.23        31.4       1.289
  jd4                  JUNCTION     0.678    0.760     0  06:00        11.1        12.4       0.427
  jd5                  JUNCTION     0.203    0.352     0  06:00        3.26        5.73       0.077
  jd6                  JUNCTION     0.234    0.234     0  06:00        3.76        3.76       0.134
  jd7                  JUNCTION     0.119    1.604     0  06:00        1.91        32.2       0.197
  jd8                  JUNCTION     0.165    1.111     0  06:00        2.66        23.5       0.959
  jd9                  JUNCTION     0.127    1.158     0  06:00        2.04        21.3       0.244
  jd10                 JUNCTION     0.337    0.428     0  06:00        5.41        6.88       1.484
  jd11                 JUNCTION     0.497    0.497     0  06:00        7.97        7.97       0.171
  jd12                 JUNCTION     0.372    0.809     0  06:00        5.99          13       1.074
  jd13                 JUNCTION     0.675    0.675     0  06:00        10.8        10.8       0.141
  jd14                 JUNCTION     0.784    0.883     0  06:00        12.7        14.3       0.259
  jd15                 JUNCTION     0.328    0.708     0  06:00        5.25        11.4       0.717
  jd16                 JUNCTION     0.353    1.346     0  06:00        5.66        21.5       0.278
  jd17                 JUNCTION     0.732    1.764     0  06:00        11.8        32.5       2.470
  jd18                 JUNCTION     0.584    0.847     0  06:00        9.36        13.6       0.375
  jd19                 JUNCTION     0.542    1.031     0  06:00         8.7        19.3       0.253
  jd20                 JUNCTION     0.448    0.675     0  06:00        7.21        14.6       0.403
  jd21                 JUNCTION     0.207    1.748     0  06:00        3.33        29.4       1.172
  jd22                 JUNCTION     0.365    0.816     0  06:00        5.88        13.3       0.622
  jd23                 JUNCTION     0.362    1.007     0  06:00        5.82        16.1       0.219
  jd24                 JUNCTION     0.597    0.597     0  06:00        9.58        9.58       0.165
  jd25                 JUNCTION     0.468    0.677     0  06:00        7.52        10.9       0.288
  jd26                 JUNCTION     0.681    1.133     0  06:00        10.9        18.2       0.274
  jd27                 JUNCTION     0.693    1.163     0  06:00        11.2        18.7       0.261
  jd28                 JUNCTION     0.934    1.322     0  06:00        15.3        21.5       0.625
  jd29                 JUNCTION     0.384    0.384     0  06:00        6.16        6.16       0.099
  jd30                 JUNCTION     0.393    1.130     0  06:00        6.38        17.5       0.170
  jd31                 JUNCTION     0.263    0.540     0  06:00        4.27        9.26       5.034
  jd32                 JUNCTION     0.540    2.407     0  06:00        8.68        38.9       0.644
  jd33                 JUNCTION     0.534    0.887     0  06:00         8.6        14.3       0.145
  jd34                 JUNCTION     0.662    0.662     0  06:00        10.7        10.7       0.117
  jd35                 JUNCTION     0.604    2.054     0  06:00        9.69        33.9       0.392
  jd36                 JUNCTION     0.997    1.633     0  06:00        16.3        26.8       0.325
  jd37                 JUNCTION     1.057    1.057     0  06:00        17.2        17.2       0.187
  jd38                 JUNCTION     0.978    1.609     0  06:00        15.9        26.2       0.423
  jd39                 JUNCTION     0.682    2.891     0  06:00          11        49.4       1.046
  jd40                 JUNCTION     1.150    2.850     0  06:00        18.7        45.2       0.419
  jd41                 JUNCTION     0.812    3.302     0  06:00        13.1        55.4       4.002
  jd42                 JUNCTION     1.038    1.142     0  06:00        17.1        18.8       0.327
  jd43                 JUNCTION     1.209    2.138     0  06:00        19.5        33.8       0.445
  jd44                 JUNCTION     1.599    3.790     0  06:00        25.9        64.9       0.375
  jd45                 JUNCTION     0.624    2.769     0  06:00        10.4        41.8       0.778
  jd46                 JUNCTION     0.287    0.287     0  06:00        4.75        4.75       1.159
  jd47                 JUNCTION     0.961    0.961     0  06:00        15.5        15.5       0.218
  jd48                 JUNCTION     0.269    0.269     0  06:00        4.36        4.36       0.138
  jd49                 JUNCTION     1.276    1.276     0  06:00        20.9        20.9       0.258
  jd50                 JUNCTION     1.341    3.362     0  06:00        21.8        71.5       0.609
  jd51                 JUNCTION     0.285    1.307     0  06:00        4.58        21.1       6.932
  jd52                 JUNCTION     0.571    2.306     0  06:00        9.27        36.1       0.372
  jd53                 JUNCTION     0.314    1.770     0  06:00        5.14        28.3       0.226
  jd54                 JUNCTION     0.174    0.864     0  06:00        2.78        13.9       0.274
  jd55                 JUNCTION     0.317    1.050     0  06:00        5.07        16.5       4.973
  jd56                 JUNCTION     0.193    0.564     0  06:00        3.09        9.03       0.236
  jd59                 JUNCTION     0.191    0.945     0  06:00        3.06        14.8       5.472
  jd60                 JUNCTION     0.341    0.724     0  06:00        5.48        11.7       1.113
  jd61                 JUNCTION     0.382    0.430     0  06:00        6.19        6.97       0.172
  jd62                 JUNCTION     0.155    0.155     0  06:00        2.52        2.52       0.054
  jd63                 JUNCTION     0.212    0.212     0  06:00         3.4         3.4       0.119
  jd64                 JUNCTION     0.178    0.440     0  06:00        2.86        7.07       5.581
  jd65                 JUNCTION     2.919    2.919     0  06:00        48.4        48.4       0.177
  jd66                 JUNCTION     0.399    1.162     0  06:00         6.5        18.9       1.701
  jd69                 JUNCTION     0.742    0.763     0  06:00          12        12.4       0.218
  jd79                 JUNCTION     0.717    1.333     0  06:00        11.5        20.5       0.866
  jd80                 JUNCTION     0.795    1.017     0  06:00        12.8        17.4       0.849
  jd81                 JUNCTION     0.602    0.602     0  06:00         9.7         9.7       0.062
  jd83                 JUNCTION     0.636    0.813     0  06:00        10.3        13.9       0.614
  jd84                 JUNCTION     0.808    0.808     0  06:00        13.1        13.1       0.156
  jd85                 JUNCTION     0.184    0.301     0  06:00        2.95        4.85       1.781
  jd87                 JUNCTION     0.150    0.361     0  06:00        2.41        5.82       1.287
  jd89                 JUNCTION     0.174    0.174     0  06:00         2.8         2.8       0.255
  jd90                 JUNCTION     0.178    0.178     0  06:00        2.86        2.86       0.184
  jd92                 JUNCTION     0.150    0.150     0  06:00         2.4         2.4       0.127
  jd93                 JUNCTION     0.317    0.690     0  06:00        5.15        11.1       0.311
  jd94                 JUNCTION     0.021    0.374     0  06:00        0.33        6.01       0.351
  jd95                 JUNCTION     0.039    0.355     0  06:00       0.625         5.7       0.295
  jd96                 JUNCTION     0.294    0.391     0  06:00         4.8        6.35       1.536
  jd97                 JUNCTION     0.316    0.316     0  06:00        5.08        5.08       0.073
  jd98                 JUNCTION     0.176    0.176     0  06:00        2.83        2.83       0.130
  jd99                 JUNCTION     0.085    0.271     0  06:00        1.37        4.78       1.199
  jd101                JUNCTION     0.231    0.459     0  06:00        3.71        7.37       0.150
  jd102                JUNCTION     0.229    0.229     0  06:00        3.67        3.67       0.211
  jd103                JUNCTION     0.158    0.158     0  06:00        2.54        2.54       0.068
  jd106                JUNCTION     0.124    0.716     0  06:00        1.99        11.4       3.502
  jd107                JUNCTION     0.179    0.587     0  06:00        2.87        9.44       0.258
  jd108                JUNCTION     0.195    0.195     0  06:00        3.16        3.18       2.094
  jd109                JUNCTION     0.324    0.324     0  06:00        5.21        5.21       0.058
  jd110                JUNCTION     0.248    0.370     0  06:00        4.08        6.05       2.577
  jd111                JUNCTION     0.205    0.205     0  06:00        3.34        3.34       0.111
  jd112                JUNCTION     0.241    0.670     0  06:00        3.86        10.8       0.101
  jd113                JUNCTION     0.163    0.163     0  06:00        2.66        2.66       0.008
  jd114                JUNCTION     0.196    2.548     0  06:00        3.14        40.8       0.782
  jd117                JUNCTION     0.179    0.592     0  06:00        2.88        9.66       1.661
  jd118                JUNCTION     0.166    0.166     0  06:00        2.65        2.65       0.033
  jd120                JUNCTION     0.206    0.206     0  06:00         3.3         3.3       0.117
  jd121                JUNCTION     0.252    0.252     0  06:00         4.1         4.1       0.155
  jd122                JUNCTION     0.602    2.386     0  06:00        9.67        44.9       1.266
  jd123                JUNCTION     0.620    2.291     0  06:00        9.96        49.1       1.450
  jd124                JUNCTION     0.884    1.957     0  06:00        14.3        39.7       0.148
  jd125                JUNCTION     0.848    2.493     0  06:00        13.8        47.1       0.152
  jd126                JUNCTION     1.224    1.723     0  06:00        20.1        28.2       0.365
  jd135                JUNCTION     0.322    0.322     0  06:00        5.15        5.15       0.086
  jd136                JUNCTION     0.267    0.430     0  06:00        4.35        7.01       0.243
  psk1                 OUTFALL      0.000    0.319     0  06:00           0        5.14       0.000
  psk2                 OUTFALL      0.000    0.831     0  06:00           0        12.9       0.000
  psk3                 OUTFALL      0.000    1.341     0  06:00           0        21.5       0.000
  psk4                 OUTFALL      0.000    0.000     0  00:00           0           0       0.000 ltr
  psk5                 OUTFALL      0.000    0.323     0  06:00           0        5.33       0.000
  psk6                 OUTFALL      0.000    0.269     0  06:00           0        4.39       0.000
  psk7                 OUTFALL      0.000    1.603     0  06:00           0        32.1       0.000
  psk8                 OUTFALL      0.000    0.000     0  00:00           0           0       0.000 ltr
  
  
  **********************
  Node Surcharge Summary
  **********************
  
  Surcharging occurs when water rises above the top of the highest conduit.
  ---------------------------------------------------------------------
                                               Max. Height   Min. Depth
                                   Hours       Above Crown    Below Rim
  Node                 Type      Surcharged         Meters       Meters
  ---------------------------------------------------------------------
  jd3                  JUNCTION       11.10          2.200        0.000
  jd4                  JUNCTION        3.17          2.200        0.000
  jd8                  JUNCTION        8.28          2.200        0.000
  jd9                  JUNCTION        5.66          2.200        0.000
  jd10                 JUNCTION       11.23          2.400        0.000
  jd12                 JUNCTION       11.55          2.400        0.000
  jd17                 JUNCTION        8.86          2.200        0.000
  jd19                 JUNCTION        2.25          2.200        0.000
  jd21                 JUNCTION       11.23          2.200        0.000
  jd22                 JUNCTION        9.62          2.362        0.038
  jd28                 JUNCTION       11.84          2.400        0.000
  jd31                 JUNCTION        9.42          0.655        1.545
  jd32                 JUNCTION       11.72          2.200        0.000
  jd35                 JUNCTION       12.09          2.400        0.000
  jd39                 JUNCTION       11.13          2.000        0.000
  jd40                 JUNCTION        0.54          2.200        0.000
  jd41                 JUNCTION        8.87          1.000        0.000
  jd43                 JUNCTION        0.31          2.200        0.000
  jd44                 JUNCTION        0.44          2.000        0.000
  jd45                 JUNCTION       11.53          2.000        0.000
  jd50                 JUNCTION       11.91          2.200        0.000
  jd51                 JUNCTION        8.75          1.350        0.000
  jd55                 JUNCTION        2.14          0.191        1.309
  jd59                 JUNCTION        8.67          1.500        0.000
  jd60                 JUNCTION       11.58          2.400        0.000
  jd64                 JUNCTION        8.69          1.800        0.000
  jd65                 JUNCTION        6.48          2.400        0.000
  jd66                 JUNCTION       10.99          2.200        0.000
  jd79                 JUNCTION       11.75          2.400        0.000
  jd80                 JUNCTION        8.93          2.400        0.000
  jd83                 JUNCTION       12.13          2.400        0.000
  jd85                 JUNCTION       11.08          2.400        0.000
  jd87                 JUNCTION       11.40          2.400        0.000
  jd96                 JUNCTION       11.39          2.200        0.000
  jd99                 JUNCTION       11.00          2.400        0.000
  jd106                JUNCTION        9.26          2.000        0.000
  jd108                JUNCTION       11.43          0.266        1.734
  jd110                JUNCTION       10.90          2.000        0.000
  jd114                JUNCTION       11.57          2.000        0.000
  jd117                JUNCTION       11.11          0.558        1.642
  jd122                JUNCTION       11.24          2.200        0.000
  jd123                JUNCTION       11.06          2.200        0.000
  jd124                JUNCTION       12.32          2.400        0.000
  jd125                JUNCTION        2.64          2.200        0.000
  jd126                JUNCTION       12.11          2.400        0.000
  
  
  *********************
  Node Flooding Summary
  *********************
  
  Flooding refers to all water that overflows a node, whether it ponds or not.
  --------------------------------------------------------------------------
                                                             Total   Maximum
                                 Maximum   Time of Max       Flood    Ponded
                        Hours       Rate    Occurrence      Volume     Depth
  Node                 Flooded       CMS   days hr:min    10^6 ltr    Meters
  --------------------------------------------------------------------------
  jd3                    11.09     1.713      0  06:00      30.994     0.000
  jd4                     2.09     0.254      0  05:28       0.690     0.000
  jd8                     1.21     0.111      0  05:16       0.218     0.000
  jd9                     0.69     0.316      0  05:16       0.393     0.000
  jd10                   11.22     0.428      0  06:00       6.782     0.000
  jd12                   11.54     0.809      0  06:00      12.817     0.000
  jd17                    4.58     0.935      0  06:00       6.196     0.000
  jd19                    0.01     0.191      0  05:23       0.003     0.000
  jd21                    9.42     1.747      0  06:00      28.738     0.000
  jd28                   11.83     1.322      0  06:00      21.371     0.000
  jd32                   11.72     2.407      0  06:00      38.621     0.000
  jd35                   12.08     2.054      0  06:00      33.735     0.000
  jd39                   11.12     2.891      0  06:00      48.844     0.000
  jd40                    0.43     0.516      0  05:38       0.299     0.000
  jd41                    8.87     3.302      0  06:00      53.248     0.000
  jd43                    0.28     0.322      0  05:45       0.251     0.000
  jd44                    0.01     0.617      0  05:42       0.011     0.000
  jd45                   11.52     2.769      0  06:00      41.498     0.000
  jd50                   11.91     3.361      0  06:00      71.108     0.000
  jd51                    8.75     1.307      0  06:00      19.694     0.000
  jd59                    8.67     0.945      0  06:00      14.001     0.000
  jd60                   11.57     0.724      0  06:00      11.559     0.000
  jd64                    0.01     0.356      0  05:19       0.010     0.000
  jd65                    5.95     1.825      0  06:00      13.826     0.000
  jd66                   10.98     1.161      0  06:00      18.541     0.000
  jd79                    8.26     1.107      0  06:00      12.850     0.000
  jd80                    7.51     0.859      0  06:00      10.602     0.000
  jd83                   12.13     0.813      0  06:00      13.847     0.000
  jd85                   11.05     0.301      0  06:00       4.767     0.000
  jd87                   11.39     0.361      0  06:00       5.751     0.000
  jd96                   11.37     0.391      0  06:00       6.259     0.000
  jd99                   10.99     0.271      0  06:00       4.721     0.000
  jd106                   9.25     0.716      0  06:00      11.004     0.000
  jd110                  10.89     0.370      0  06:00       5.895     0.000
  jd114                  11.11     2.547      0  06:00      40.404     0.000
  jd122                  11.05     2.386      0  06:00      44.311     0.000
  jd123                   9.24     1.976      0  06:00      36.909     0.000
  jd124                  12.32     1.957      0  06:00      39.618     0.000
  jd125                   0.33     0.525      0  05:26       0.091     0.000
  jd126                  12.11     1.722      0  06:00      28.113     0.000
  
  
  ***********************
  Outfall Loading Summary
  ***********************
  
  -----------------------------------------------------------
                         Flow       Avg       Max       Total
                         Freq      Flow      Flow      Volume
  Outfall Node           Pcnt       CMS       CMS    10^6 ltr
  -----------------------------------------------------------
  psk1                  97.81     0.137     0.319       5.138
  psk2                  97.80     0.344     0.831      12.891
  psk3                  97.85     0.573     1.341      21.486
  psk4                   0.00     0.000     0.000       0.000
  psk5                  97.85     0.141     0.323       5.327
  psk6                  97.78     0.117     0.269       4.391
  psk7                  97.85     0.847     1.603      32.116
  psk8                   0.00     0.000     0.000       0.000
  -----------------------------------------------------------
  System                73.37     2.160     0.000      81.349
  
  
  ********************
  Link Flow Summary
  ********************
  
  -----------------------------------------------------------------------------
                                 Maximum  Time of Max   Maximum    Max/    Max/
                                  |Flow|   Occurrence   |Veloc|    Full    Full
  Link                 Type          CMS  days hr:min     m/sec    Flow   Depth
  -----------------------------------------------------------------------------
  GQ1                  CONDUIT     0.189     0  06:00      1.77    0.50    0.41
  GQ2                  CONDUIT     0.511     0  06:00      2.07    0.24    0.35
  GQ3                  CONDUIT     0.319     0  06:00      5.07    0.01    0.08
  GQ4                  CONDUIT     0.510     0  07:59      1.80    1.00    1.00
  GQ5                  CONDUIT     0.636     0  06:00      1.55    0.53    0.76
  GQ6                  CONDUIT     0.175     0  06:00      1.11    0.08    0.35
  GQ7                  CONDUIT     1.656     0  06:16      3.57    0.99    1.00
  GQ8                  CONDUIT     0.342     0  06:00      0.92    0.33    0.70
  GQ9                  CONDUIT     0.928     0  06:00      2.48    0.33    0.70
  GQ10                 CONDUIT     1.136     0  12:10      4.10    1.04    1.00
  GQ11                 CONDUIT     0.104     0  06:00      1.52    0.11    0.31
  GQ12                 CONDUIT     0.120     0  06:00      0.65    0.13    0.62
  GQ13                 CONDUIT     0.082     0  06:00      0.48    0.04    0.57
  GQ14                 CONDUIT     0.040     0  06:00      0.83    0.06    0.15
  GQ15                 CONDUIT     0.108     0  06:00      3.81    0.44    0.42
  GQ16                 CONDUIT     0.738     0  06:00      3.46    0.36    0.32
  GQ17                 CONDUIT     0.194     0  06:00      1.23    0.06    0.35
  GQ18                 CONDUIT     1.033     0  06:00      2.50    4.66    0.77
  GQ19                 CONDUIT     0.258     0  06:00      1.47    0.03    0.27
  GQ20                 CONDUIT     0.056     0  06:00      0.42    0.03    0.25
  GQ21                 CONDUIT     0.207     0  06:00      1.29    0.06    0.27
  GQ22                 CONDUIT     0.210     0  06:00      1.53    0.06    0.23
  GQ23                 CONDUIT     0.371     0  06:00      1.99    0.18    0.29
  GQ24                 CONDUIT     0.554     0  06:00      1.52    0.27    0.68
  GQ25                 CONDUIT     0.354     0  06:00      3.15    0.40    0.42
  GQ26                 CONDUIT     0.274     0  06:00      2.34    0.32    0.43
  GQ27                 CONDUIT     0.453     0  06:01      2.03    0.45    0.74
  GQ28                 CONDUIT     0.185     0  06:00      0.53    0.20    0.65
  GQ29                 CONDUIT     0.540     0  06:00      1.07    0.25    1.00
  GQ30                 CONDUIT     0.815     0  06:00      2.88    0.99    1.00
  GQ31                 CONDUIT     0.308     0  06:00      1.41    0.41    0.72
  GQ32                 CONDUIT     0.470     0  06:00      2.82    0.75    0.57
  GQ33                 CONDUIT     1.144     0  06:00      4.46    0.80    0.85
  GQ34                 CONDUIT     0.214     0  06:00      1.34    0.34    0.55
  GQ35                 CONDUIT     0.422     0  06:00      2.05    0.78    0.68
  GQ36                 CONDUIT     0.631     0  06:00      2.86    0.78    0.73
  GQ37                 CONDUIT     0.281     0  06:00      1.29    0.40    0.72
  GQ38                 CONDUIT     0.107     0  06:00      0.57    0.15    0.63
  GQ39                 CONDUIT     0.465     0  06:00      1.97    0.60    0.78
  GQ40                 CONDUIT     0.323     0  06:00      2.29    0.40    0.50
  GQ41                 CONDUIT     0.851     0  06:00      1.37    0.39    0.74
  GQ42                 CONDUIT     1.359     0  05:52      2.70    1.00    1.00
  GQ43                 CONDUIT     1.701     0  06:00      4.03    0.76    0.83
  GQ44                 CONDUIT     0.946     0  05:58      1.88    1.00    1.00
  GQ45                 CONDUIT     0.489     0  06:00      1.81    0.20    0.65
  GQ46                 CONDUIT     1.031     0  06:00      2.05    0.97    1.00
  GQ47                 CONDUIT     0.091     0  06:00      0.52    0.09    0.60
  GQ48                 CONDUIT     0.091     0  06:00      0.51    0.09    0.60
  GQ49                 CONDUIT     0.346     0  06:00      1.87    0.13    0.62
  GQ50                 CONDUIT     0.100     0  06:00      0.96    0.13    0.40
  GQ51                 CONDUIT     0.380     0  06:00      2.37    0.58    0.55
  GQ52                 CONDUIT     0.278     0  06:00      0.73    0.37    0.71
  GQ53                 CONDUIT     2.145     0  06:00      2.73    0.96    1.00
  GQ54                 CONDUIT     0.218     0  06:00      1.13    0.19    0.65
  GQ55                 CONDUIT     0.164     0  06:00      0.91    0.11    0.61
  GQ56                 CONDUIT     1.963     0  05:42      4.13    1.07    1.00
  GQ57                 CONDUIT     0.299     0  06:00      0.95    0.19    0.65
  GQ58                 CONDUIT     0.622     0  06:00      1.80    0.19    0.65
  GQ59                 CONDUIT     1.203     0  05:54      2.39    1.00    1.00
  GQ60                 CONDUIT     1.049     0  06:00      0.83    0.25    0.67
  GQ61                 CONDUIT     0.140     0  06:00      0.29    0.02    0.55
  GQ62                 CONDUIT     0.293     0  06:00      0.36    0.03    0.56
  GQ63                 CONDUIT     0.666     0  06:00      0.75    0.02    0.55
  GQ64                 CONDUIT     0.048     0  06:00      1.15    0.04    0.21
  GQ65                 CONDUIT     0.021     0  06:00      0.29    0.04    0.30
  GQ66                 CONDUIT     0.084     0  06:00      0.41    0.02    0.55
  GQ67                 CONDUIT     0.440     0  06:00      0.39    0.31    1.00
  GQ68                 CONDUIT     0.378     0  06:00      0.74    0.12    0.62
  GQ69                 CONDUIT     0.762     0  06:00      2.10    0.27    0.68
  GQ70                 CONDUIT     0.269     0  06:00      6.67    0.04    0.13
  GQ71                 CONDUIT     0.323     0  06:00      4.87    0.08    0.19
  GQ72                 CONDUIT     1.603     0  06:00      4.97    0.38    0.43
  GQ73                 CONDUIT     0.831     0  06:00     10.43    0.05    0.16
  GQ74                 CONDUIT     0.171     0  06:00      1.18    0.03    0.24
  GQ75                 CONDUIT     0.187     0  06:00      0.40    0.05    0.58
  GQ76                 CONDUIT     1.341     0  06:00      5.10    0.29    0.37
  GQ77                 CONDUIT     0.000     0  00:00      0.00    0.00    0.17
  GQ78                 CONDUIT     0.616     0  06:00      2.51    0.67    0.81
  GQ79                 CONDUIT     0.226     0  06:00      1.08    0.49    0.70
  GQ80                 CONDUIT     0.222     0  06:00      0.90    0.37    0.81
  GQ81                 CONDUIT     0.421     0  05:08      1.49    2.67    1.00
  GQ82                 CONDUIT     0.289     0  06:00      1.48    0.20    0.65
  GQ83                 CONDUIT     0.312     0  06:00      2.47    0.20    0.46
  GQ84                 CONDUIT     0.631     0  06:00      2.77    0.50    0.75
  GQ85                 CONDUIT     0.177     0  06:00      0.78    0.31    0.75
  GQ86                 CONDUIT     0.086     0  06:00      0.52    0.04    0.57
  GQ87                 CONDUIT     0.031     0  06:00      0.18    0.05    0.57
  GQ88                 CONDUIT     0.211     0  06:00      1.09    0.19    0.65
  GQ89                 CONDUIT     0.174     0  06:00      0.87    0.23    0.66
  GQ90                 CONDUIT     0.178     0  06:00      0.93    0.18    0.64
  GQ91                 CONDUIT     0.150     0  06:00      0.78    0.18    0.64
  GQ92                 CONDUIT     0.354     0  06:00      1.60    0.51    0.45
  GQ93                 CONDUIT     0.374     0  06:00      1.36    0.32    0.54
  GQ94                 CONDUIT     0.687     0  06:00      1.93    0.81    0.67
  GQ95                 CONDUIT     0.097     0  06:00      0.34    0.02    0.55
  GQ96                 CONDUIT     0.315     0  06:00      1.20    0.54    0.52
  GQ97                 CONDUIT     0.176     0  06:00      1.73    0.32    0.39
  GQ98                 CONDUIT     0.186     0  06:00      0.89    0.26    0.69
  GQ99                 CONDUIT     0.318     0  06:00      0.50    0.02    0.55
  GQ100                CONDUIT     0.228     0  06:00      2.54    0.39    0.36
  GQ101                CONDUIT     0.158     0  06:00      0.87    0.12    0.62
  GQ102                CONDUIT     0.612     0  06:00      1.78    0.19    0.65
  GQ103                CONDUIT     0.305     0  06:00      1.36    0.47    0.74
  GQ104                CONDUIT     0.553     0  06:00      2.54    0.40    0.72
  GQ105                CONDUIT     0.315     0  10:53      0.63    1.00    1.00
  GQ106                CONDUIT     0.179     0  06:00      0.93    0.18    0.64
  GQ107                CONDUIT     0.663     0  06:00      2.81    0.60    0.78
  GQ108                CONDUIT     0.829     0  08:27      1.65    1.00    1.00
  GQ109                CONDUIT     0.129     0  06:00      1.20    0.18    0.42
  GQ110                CONDUIT     0.213     0  06:00      0.53    0.03    0.56
  GQ111                CONDUIT     0.192     0  06:00      1.00    0.18    0.64
  GQ112                CONDUIT     0.586     0  06:00      2.56    0.10    0.26
  GQ113                CONDUIT     0.324     0  06:00      3.21    0.25    0.39
  GQ114                CONDUIT     0.195     0  06:00      0.38    0.08    0.62
  GQ115                CONDUIT     0.084     0  06:00      0.82    0.01    0.15
  GQ116                CONDUIT     0.121     0  06:00      0.28    0.02    0.55
  GQ117                CONDUIT     0.430     0  06:00      3.83    0.27    0.28
  GQ118                CONDUIT     0.163     0  06:00      1.63    0.06    0.28
  GQ119                CONDUIT     1.761     0  06:00      3.87    0.77    0.85
  GQ120                CONDUIT     0.000     0  00:00      0.00    0.00    0.50
  GQ121                CONDUIT     0.592     0  06:00      1.18    0.42    1.00
  GQ122                CONDUIT     0.248     0  06:00      0.89    0.05    0.57
  GQ123                CONDUIT     0.166     0  06:00      0.94    0.08    0.60
  GQ124                CONDUIT     0.104     0  06:00      0.86    0.05    0.29
  GQ125                CONDUIT     0.206     0  06:00      1.03    0.23    0.66
  GQ126                CONDUIT     0.252     0  06:00      1.26    0.24    0.67
  GQ127                CONDUIT     0.595     0  06:00      1.65    0.76    0.67
  GQ128                CONDUIT     0.862     0  06:00      2.36    0.19    0.38
  GQ129                CONDUIT     1.313     0  05:57      2.61    1.00    1.00
  GQ130                CONDUIT     1.073     0  05:57      3.79    1.00    1.00
  GQ131                CONDUIT     0.499     0  06:00      2.13    0.58    0.77
  
  
  ***************************
  Flow Classification Summary
  ***************************
  
  -------------------------------------------------------------------------------------
                      Adjusted    ---------- Fraction of Time in Flow Class ---------- 
                       /Actual         Up    Down  Sub   Sup   Up    Down  Norm  Inlet 
  Conduit               Length    Dry  Dry   Dry   Crit  Crit  Crit  Crit  Ltd   Ctrl  
  -------------------------------------------------------------------------------------
  GQ1                     1.00   0.02  0.00  0.00  0.01  0.96  0.00  0.00  0.00  0.00
  GQ2                     1.00   0.02  0.00  0.00  0.03  0.95  0.00  0.00  0.93  0.00
  GQ3                     1.00   0.02  0.00  0.00  0.00  0.98  0.00  0.00  0.29  0.00
  GQ4                     1.00   0.02  0.00  0.00  0.98  0.00  0.00  0.00  0.39  0.00
  GQ5                     1.00   0.02  0.00  0.00  0.98  0.00  0.00  0.00  0.91  0.00
  GQ6                     1.00   0.02  0.00  0.00  0.98  0.00  0.00  0.00  0.93  0.00
  GQ7                     1.00   0.02  0.00  0.00  0.13  0.84  0.00  0.00  0.18  0.00
  GQ8                     1.00   0.02  0.00  0.00  0.98  0.00  0.00  0.00  0.91  0.00
  GQ9                     1.00   0.02  0.00  0.00  0.92  0.06  0.00  0.00  0.93  0.00
  GQ10                    1.00   0.02  0.00  0.00  0.79  0.19  0.00  0.00  0.44  0.00
  GQ11                    1.00   0.02  0.00  0.00  0.14  0.84  0.00  0.00  0.93  0.00
  GQ12                    1.00   0.02  0.00  0.00  0.97  0.01  0.00  0.00  0.93  0.00
  GQ13                    1.00   0.02  0.00  0.00  0.98  0.00  0.00  0.00  0.93  0.00
  GQ14                    1.00   0.02  0.00  0.00  0.98  0.00  0.00  0.00  0.00  0.00
  GQ15                    1.00   0.02  0.00  0.00  0.00  0.98  0.00  0.00  0.01  0.00
  GQ16                    1.00   0.02  0.00  0.00  0.00  0.98  0.00  0.00  0.00  0.00
  GQ17                    1.00   0.02  0.00  0.00  0.94  0.03  0.00  0.00  0.93  0.00
  GQ18                    1.00   0.02  0.00  0.00  0.76  0.22  0.00  0.00  0.05  0.00
  GQ19                    1.00   0.02  0.00  0.00  0.81  0.17  0.00  0.00  0.93  0.00
  GQ20                    1.00   0.02  0.00  0.00  0.98  0.00  0.00  0.00  0.93  0.00
  GQ21                    1.00   0.02  0.00  0.00  0.39  0.59  0.00  0.00  0.93  0.00
  GQ22                    1.00   0.02  0.00  0.00  0.03  0.95  0.00  0.00  0.93  0.00
  GQ23                    1.00   0.02  0.00  0.00  0.01  0.97  0.00  0.00  0.14  0.00
  GQ24                    1.00   0.02  0.00  0.00  0.98  0.00  0.00  0.00  0.93  0.00
  GQ25                    1.00   0.02  0.00  0.00  0.00  0.98  0.00  0.00  0.01  0.00
  GQ26                    1.00   0.02  0.00  0.00  0.00  0.98  0.00  0.00  0.88  0.00
  GQ27                    1.00   0.02  0.00  0.00  0.92  0.06  0.00  0.00  0.91  0.00
  GQ28                    1.00   0.02  0.00  0.00  0.98  0.00  0.00  0.00  0.93  0.00
  GQ29                    1.00   0.02  0.00  0.00  0.98  0.00  0.00  0.00  0.13  0.00
  GQ30                    1.00   0.02  0.00  0.00  0.97  0.01  0.00  0.00  0.11  0.00
  GQ31                    1.00   0.02  0.00  0.00  0.98  0.00  0.00  0.00  0.93  0.00
  GQ32                    1.00   0.02  0.00  0.00  0.00  0.97  0.00  0.00  0.01  0.00
  GQ33                    1.00   0.02  0.00  0.00  0.28  0.70  0.00  0.00  0.89  0.00
  GQ34                    1.00   0.02  0.00  0.00  0.98  0.00  0.00  0.00  0.93  0.00
  GQ35                    1.00   0.02  0.00  0.00  0.00  0.98  0.00  0.00  0.64  0.00
  GQ36                    1.00   0.02  0.00  0.00  0.00  0.98  0.00  0.00  0.90  0.00
  GQ37                    1.00   0.02  0.00  0.00  0.98  0.00  0.00  0.00  0.93  0.00
  GQ38                    1.00   0.02  0.00  0.00  0.98  0.00  0.00  0.00  0.93  0.00
  GQ39                    1.00   0.02  0.00  0.00  0.96  0.01  0.00  0.00  0.93  0.00
  GQ40                    1.00   0.02  0.00  0.00  0.01  0.97  0.00  0.00  0.93  0.00
  GQ41                    1.00   0.02  0.00  0.00  0.98  0.00  0.00  0.00  0.89  0.00
  GQ42                    1.00   0.02  0.00  0.00  0.98  0.00  0.00  0.00  0.69  0.00
  GQ43                    1.00   0.02  0.00  0.00  0.00  0.98  0.00  0.00  0.93  0.00
  GQ44                    1.00   0.02  0.00  0.00  0.98  0.00  0.00  0.00  0.35  0.00
  GQ45                    1.00   0.02  0.00  0.00  0.35  0.63  0.00  0.00  0.93  0.00
  GQ46                    1.00   0.02  0.00  0.00  0.73  0.25  0.00  0.00  0.58  0.00
  GQ47                    1.00   0.02  0.00  0.00  0.98  0.00  0.00  0.00  0.93  0.00
  GQ48                    1.00   0.02  0.00  0.00  0.98  0.00  0.00  0.00  0.93  0.00
  GQ49                    1.00   0.02  0.00  0.00  0.93  0.05  0.00  0.00  0.93  0.00
  GQ50                    1.00   0.02  0.00  0.00  0.98  0.00  0.00  0.00  0.93  0.00
  GQ51                    1.00   0.02  0.00  0.00  0.00  0.98  0.00  0.00  0.74  0.00
  GQ52                    1.00   0.02  0.00  0.00  0.98  0.00  0.00  0.00  0.83  0.00
  GQ53                    1.00   0.02  0.00  0.00  0.98  0.00  0.00  0.00  0.74  0.00
  GQ54                    1.00   0.02  0.00  0.00  0.98  0.00  0.00  0.00  0.93  0.00
  GQ55                    1.00   0.02  0.00  0.00  0.97  0.00  0.00  0.00  0.93  0.00
  GQ56                    1.00   0.02  0.00  0.00  0.05  0.93  0.00  0.00  0.71  0.00
  GQ57                    1.00   0.02  0.00  0.00  0.98  0.00  0.00  0.00  0.93  0.00
  GQ58                    1.00   0.02  0.00  0.00  0.97  0.01  0.00  0.00  0.93  0.00
  GQ59                    1.00   0.02  0.00  0.00  0.98  0.00  0.00  0.00  0.74  0.00
  GQ60                    1.00   0.02  0.00  0.00  0.98  0.00  0.00  0.00  0.27  0.00
  GQ61                    1.00   0.02  0.00  0.00  0.98  0.00  0.00  0.00  0.93  0.00
  GQ62                    1.00   0.02  0.00  0.00  0.98  0.00  0.00  0.00  0.93  0.00
  GQ63                    1.00   0.02  0.00  0.00  0.97  0.01  0.00  0.00  0.93  0.00
  GQ64                    1.00   0.02  0.00  0.00  0.17  0.81  0.00  0.00  0.93  0.00
  GQ65                    1.00   0.02  0.00  0.00  0.98  0.00  0.00  0.00  0.93  0.00
  GQ66                    1.00   0.02  0.00  0.00  0.97  0.01  0.00  0.00  0.93  0.00
  GQ67                    1.00   0.02  0.00  0.00  0.98  0.00  0.00  0.00  0.06  0.00
  GQ68                    1.00   0.02  0.00  0.00  0.98  0.00  0.00  0.00  0.93  0.00
  GQ69                    1.00   0.02  0.00  0.00  0.97  0.01  0.00  0.00  0.93  0.00
  GQ70                    1.00   0.02  0.00  0.00  0.00  0.98  0.00  0.00  0.01  0.00
  GQ71                    1.00   0.02  0.00  0.00  0.00  0.98  0.00  0.00  0.21  0.00
  GQ72                    1.00   0.02  0.00  0.00  0.00  0.98  0.00  0.00  0.37  0.00
  GQ73                    1.00   0.02  0.00  0.00  0.00  0.98  0.00  0.00  0.02  0.00
  GQ74                    1.00   0.02  0.00  0.00  0.91  0.07  0.00  0.00  0.93  0.00
  GQ75                    1.00   0.02  0.00  0.00  0.98  0.00  0.00  0.00  0.93  0.00
  GQ76                    1.00   0.02  0.00  0.00  0.00  0.98  0.00  0.00  0.22  0.00
  GQ77                    1.00   0.02  0.98  0.00  0.00  0.00  0.00  0.00  0.00  0.00
  GQ78                    1.00   0.02  0.00  0.00  0.90  0.08  0.00  0.00  0.88  0.00
  GQ79                    1.00   0.02  0.00  0.00  0.98  0.00  0.00  0.00  0.09  0.00
  GQ80                    1.00   0.02  0.00  0.00  0.98  0.00  0.00  0.00  0.56  0.00
  GQ81                    1.00   0.02  0.00  0.00  0.98  0.00  0.00  0.00  0.10  0.00
  GQ82                    1.00   0.02  0.00  0.00  0.96  0.02  0.00  0.00  0.92  0.00
  GQ83                    1.00   0.02  0.00  0.00  0.00  0.98  0.00  0.00  0.93  0.00
  GQ84                    1.00   0.02  0.00  0.00  0.08  0.90  0.00  0.00  0.93  0.00
  GQ85                    1.00   0.02  0.00  0.00  0.98  0.00  0.00  0.00  0.64  0.00
  GQ86                    1.00   0.02  0.00  0.00  0.97  0.00  0.00  0.00  0.93  0.00
  GQ87                    1.00   0.02  0.00  0.00  0.98  0.00  0.00  0.00  0.93  0.00
  GQ88                    1.00   0.02  0.00  0.00  0.98  0.00  0.00  0.00  0.93  0.00
  GQ89                    1.00   0.02  0.00  0.00  0.97  0.00  0.00  0.00  0.93  0.00
  GQ90                    1.00   0.02  0.00  0.00  0.97  0.01  0.00  0.00  0.93  0.00
  GQ91                    1.00   0.02  0.00  0.00  0.97  0.01  0.00  0.00  0.93  0.00
  GQ92                    1.00   0.02  0.00  0.00  0.86  0.12  0.00  0.00  0.00  0.00
  GQ93                    1.00   0.02  0.00  0.00  0.98  0.00  0.00  0.00  0.93  0.00
  GQ94                    1.00   0.02  0.00  0.00  0.27  0.71  0.00  0.00  0.05  0.00
  GQ95                    1.00   0.02  0.00  0.00  0.98  0.00  0.00  0.00  0.93  0.00
  GQ96                    1.00   0.02  0.00  0.00  0.98  0.00  0.00  0.00  0.49  0.00
  GQ97                    1.00   0.02  0.00  0.00  0.03  0.95  0.00  0.00  0.28  0.00
  GQ98                    1.00   0.02  0.00  0.00  0.98  0.00  0.00  0.00  0.86  0.00
  GQ99                    1.00   0.02  0.00  0.00  0.97  0.01  0.00  0.00  0.93  0.00
  GQ100                   1.00   0.02  0.00  0.00  0.00  0.98  0.00  0.00  0.00  0.00
  GQ101                   1.00   0.02  0.00  0.00  0.97  0.01  0.00  0.00  0.93  0.00
  GQ102                   1.00   0.02  0.00  0.00  0.97  0.01  0.00  0.00  0.93  0.00
  GQ103                   1.00   0.02  0.00  0.00  0.98  0.00  0.00  0.00  0.93  0.00
  GQ104                   1.00   0.02  0.00  0.00  0.76  0.22  0.00  0.00  0.93  0.00
  GQ105                   1.00   0.02  0.00  0.00  0.98  0.00  0.00  0.00  0.07  0.00
  GQ106                   1.00   0.02  0.00  0.00  0.97  0.01  0.00  0.00  0.93  0.00
  GQ107                   1.00   0.02  0.00  0.00  0.71  0.27  0.00  0.00  0.93  0.00
  GQ108                   1.00   0.02  0.00  0.00  0.98  0.00  0.00  0.00  0.14  0.00
  GQ109                   1.00   0.02  0.00  0.00  0.91  0.07  0.00  0.00  0.93  0.00
  GQ110                   1.00   0.02  0.00  0.00  0.97  0.01  0.00  0.00  0.93  0.00
  GQ111                   1.00   0.02  0.00  0.00  0.97  0.01  0.00  0.00  0.93  0.00
  GQ112                   1.00   0.02  0.00  0.00  0.00  0.98  0.00  0.00  0.91  0.00
  GQ113                   1.00   0.02  0.00  0.00  0.00  0.98  0.00  0.00  0.91  0.00
  GQ114                   1.00   0.02  0.00  0.00  0.98  0.00  0.00  0.00  0.11  0.00
  GQ115                   1.00   0.02  0.00  0.00  0.96  0.02  0.00  0.00  0.93  0.00
  GQ116                   1.00   0.02  0.00  0.00  0.98  0.00  0.00  0.00  0.93  0.00
  GQ117                   1.00   0.02  0.00  0.00  0.00  0.98  0.00  0.00  0.00  0.00
  GQ118                   1.00   0.02  0.00  0.00  0.23  0.75  0.00  0.00  0.93  0.00
  GQ119                   1.00   0.02  0.00  0.00  0.61  0.37  0.00  0.00  0.88  0.00
  GQ120                   1.00   0.02  0.07  0.00  0.91  0.00  0.00  0.00  0.00  0.00
  GQ121                   1.00   0.02  0.00  0.00  0.97  0.01  0.00  0.00  0.10  0.00
  GQ122                   1.00   0.02  0.00  0.00  0.93  0.05  0.00  0.00  0.93  0.00
  GQ123                   1.00   0.02  0.00  0.00  0.93  0.05  0.00  0.00  0.93  0.00
  GQ124                   1.00   0.02  0.00  0.00  0.98  0.00  0.00  0.00  0.93  0.00
  GQ125                   1.00   0.02  0.00  0.00  0.97  0.01  0.00  0.00  0.93  0.00
  GQ126                   1.00   0.02  0.00  0.00  0.97  0.01  0.00  0.00  0.93  0.00
  GQ127                   1.00   0.02  0.00  0.00  0.98  0.00  0.00  0.00  0.68  0.00
  GQ128                   1.00   0.02  0.00  0.00  0.00  0.98  0.00  0.00  0.89  0.00
  GQ129                   1.00   0.02  0.00  0.00  0.98  0.00  0.00  0.00  0.39  0.00
  GQ130                   1.00   0.02  0.00  0.00  0.62  0.36  0.00  0.00  0.39  0.00
  GQ131                   1.00   0.02  0.00  0.00  0.98  0.00  0.00  0.00  0.92  0.00
  
  
  *************************
  Conduit Surcharge Summary
  *************************
  
  ----------------------------------------------------------------------------
                                                           Hours        Hours 
                         --------- Hours Full --------   Above Full   Capacity
  Conduit                Both Ends  Upstream  Dnstream   Normal Flow   Limited
  ----------------------------------------------------------------------------
  GQ4                         4.53      4.53     11.42      0.01         0.01
  GQ5                         0.01      0.01     11.10      0.01         0.01
  GQ7                         0.63      0.63      2.64      0.01         0.01
  GQ8                         0.01      0.01      0.63      0.01         0.01
  GQ9                         0.01      0.01     11.91      0.01         0.01
  GQ10                        6.48      6.48     12.03      0.29         0.01
  GQ12                        0.01      0.01      8.97      0.01         0.01
  GQ13                        0.01      0.01      3.17      0.01         0.01
  GQ18                        0.01      0.01      8.28      9.14         0.01
  GQ24                        0.01      0.01     11.72      0.01         0.01
  GQ27                        0.01      0.01      9.62      0.01         0.01
  GQ28                        0.01      0.01     11.23      0.01         0.01
  GQ29                        9.42      9.42     11.23      0.01         0.01
  GQ30                        9.62      9.62     11.50      0.01         0.01
  GQ31                        0.01      0.01     12.09      0.01         0.01
  GQ33                        0.01      0.01     12.09      0.01         0.01
  GQ37                        0.01      0.01     11.84      0.01         0.01
  GQ38                        0.01      0.01     11.84      0.01         0.01
  GQ39                        0.01      0.01      8.97      0.01         0.01
  GQ41                        0.01      0.01     11.13      0.01         0.01
  GQ42                        0.54      0.54     11.37      0.01         0.01
  GQ43                        0.01      0.01      0.54      0.01         0.01
  GQ44                        5.66      5.66      8.28      0.01         0.01
  GQ45                        0.01      0.01      2.25      0.01         0.01
  GQ46                        2.25      2.25      5.66      0.01         0.01
  GQ47                        0.01      0.01     11.23      0.01         0.01
  GQ48                        0.01      0.01     11.55      0.01         0.01
  GQ49                        0.01      0.01     11.55      0.01         0.01
  GQ52                        0.01      0.01      9.42      0.01         0.01
  GQ53                        0.44      0.44     11.53      0.01         0.01
  GQ54                        0.01      0.01     11.58      0.01         0.01
  GQ55                        0.01      0.01     11.58      0.01         0.01
  GQ56                        0.31      0.31      0.63      0.53         0.28
  GQ57                        0.01      0.01      0.31      0.01         0.01
  GQ58                        0.01      0.01     10.61      0.01         0.01
  GQ59                        0.54      0.54     10.61      0.01         0.01
  GQ60                        0.01      0.01      2.14      0.01         0.01
  GQ61                        0.01      0.01      8.67      0.01         0.01
  GQ62                        0.01      0.01      8.75      0.01         0.01
  GQ63                        0.01      0.01      8.87      0.01         0.01
  GQ66                        0.01      0.01      8.84      0.01         0.01
  GQ67                        8.69      8.69      8.75      0.01         0.01
  GQ68                        0.01      0.01      9.32      0.01         0.01
  GQ69                        0.01      0.01     10.99      0.01         0.01
  GQ75                        0.01      0.01      9.26      0.01         0.01
  GQ78                        0.01      0.01     11.75      0.01         0.01
  GQ79                        0.01      0.01     11.75      0.01         0.01
  GQ80                        0.01      0.01      8.93      0.01         0.01
  GQ81                        8.93      8.93      8.97      8.48         3.90
  GQ82                        0.01      0.01      8.97      0.01         0.01
  GQ84                        0.01      0.01      0.72      0.01         0.01
  GQ85                        0.01      0.01     12.13      0.01         0.01
  GQ86                        0.01      0.01     11.07      0.01         0.01
  GQ87                        0.01      0.01     11.07      0.01         0.01
  GQ88                        0.01      0.01     11.40      0.01         0.01
  GQ89                        0.01      0.01      9.54      0.01         0.01
  GQ90                        0.01      0.01      9.07      0.01         0.01
  GQ91                        0.01      0.01     10.49      0.01         0.01
  GQ95                        0.01      0.01     11.39      0.01         0.01
  GQ98                        0.01      0.01     11.00      0.01         0.01
  GQ99                        0.01      0.01      8.79      0.01         0.01
  GQ101                       0.01      0.01     10.32      0.01         0.01
  GQ102                       0.01      0.01     11.24      0.01         0.01
  GQ103                       0.01      0.01     11.60      0.01         0.01
  GQ104                       0.01      0.01     11.60      0.01         0.01
  GQ105                      11.06     11.06     11.24      8.93         0.01
  GQ106                       0.01      0.01     11.23      0.01         0.01
  GQ107                       0.01      0.01     11.23      0.01         0.01
  GQ108                       8.86      8.86     11.06      0.01         0.01
  GQ110                       0.01      0.01      9.26      0.01         0.01
  GQ111                       0.01      0.01     10.43      0.01         0.01
  GQ114                       0.01      0.01     11.43      0.01         0.01
  GQ116                       0.01      0.01     10.90      0.01         0.01
  GQ119                       0.01      0.01     11.72      0.01         0.01
  GQ120                       0.01      0.01     11.11      0.01         0.01
  GQ121                      11.11     11.11     11.72      0.01         0.01
  GQ122                       0.01      0.01     11.11      0.01         0.01
  GQ123                       0.01      0.01     11.22      0.01         0.01
  GQ125                       0.01      0.01     10.49      0.01         0.01
  GQ126                       0.01      0.01     10.32      0.01         0.01
  GQ129                       2.64      2.64     11.72      0.01         0.01
  GQ130                       3.28      3.28     12.32      0.01         0.01
  GQ131                       0.01      0.01     12.11      0.01         0.01
  

  Analysis begun on:  Sat Mar 25 16:21:41 2023
  Analysis ended on:  Sat Mar 25 16:21:45 2023
  Total elapsed time: 00:00:04