
  OWA STORM WATER MANAGEMENT MODEL - VERSION v5.1.14 (OWA 2022-07-31)
  --------------------------------------------------------------

  INP file created by DSDAConvertToSwmmTools 
  version 0.0.1 EcoVista 
  Title/Notes: 
  
  
  *********************************************************
  NOTE: The summary statistics displayed in this report are
  based on results found at every computational time step,  
  not just on results from each reporting time step.
  *********************************************************
  
  ****************
  Analysis Options
  ****************
  Flow Units ............... CMS
  Process Models:
    Rainfall/Runoff ........ YES
    RDII ................... NO
    Snowmelt ............... NO
    Groundwater ............ NO
    Flow Routing ........... YES
    Ponding Allowed ........ NO
    Water Quality .......... NO
  Infiltration Method ...... GREEN_AMPT
  Flow Routing Method ...... DYNWAVE
  Surcharge Method ......... EXTRAN
  Starting Date ............ 07/15/2020 00:00:00
  Ending Date .............. 07/15/2020 07:00:00
  Antecedent Dry Days ...... 0.0
  Report Time Step ......... 00:30:00
  Wet Time Step ............ 00:05:00
  Dry Time Step ............ 01:00:00
  Routing Time Step ........ 30.00 sec
  Variable Time Step ....... YES
  Maximum Trials ........... 8
  Number of Threads ........ 1
  Head Tolerance ........... 0.001500 m
  
  
  **************************        Volume         Depth
  Runoff Quantity Continuity     hectare-m            mm
  **************************     ---------       -------
  Total Precipitation ......       183.833        45.998
  Evaporation Loss .........         2.238         0.560
  Infiltration Loss ........        49.128        12.293
  Surface Runoff ...........       120.856        30.240
  Final Storage ............        12.345         3.089
  Continuity Error (%) .....        -0.399
  
  
  **************************        Volume        Volume
  Flow Routing Continuity        hectare-m      10^6 ltr
  **************************     ---------     ---------
  Dry Weather Inflow .......         0.000         0.000
  Wet Weather Inflow .......       120.133      1201.339
  Groundwater Inflow .......         0.000         0.000
  RDII Inflow ..............         0.000         0.000
  External Inflow ..........         0.000         0.000
  External Outflow .........         9.828        98.277
  Flooding Loss ............       107.870      1078.711
  Evaporation Loss .........         0.000         0.000
  Exfiltration Loss ........         0.000         0.000
  Initial Stored Volume ....         0.000         0.000
  Final Stored Volume ......         2.192        21.923
  Continuity Error (%) .....         0.202
  
  
  *************************
  Highest Continuity Errors
  *************************
  Node jd51 (4.56%)
  Node jd64 (3.67%)
  Node jd59 (3.60%)
  Node jd55 (3.56%)
  Node jd31 (3.45%)
  
  
  ***************************
  Time-Step Critical Elements
  ***************************
  Link GQ73 (94.73%)
  
  
  ********************************
  Highest Flow Instability Indexes
  ********************************
  Link GQ67 (15)
  Link GQ94 (10)
  Link GQ114 (8)
  Link GQ96 (6)
  Link GQ29 (5)
  
  
  *************************
  Routing Time Step Summary
  *************************
  Minimum Time Step           :     2.82 sec
  Average Time Step           :     7.42 sec
  Maximum Time Step           :    30.00 sec
  Percent in Steady State     :     0.00
  Average Iterations per Step :     4.42
  Percent Not Converging      :    14.45
  
  
  ***************************
  Subcatchment Runoff Summary
  ***************************
  
  ------------------------------------------------------------------------------------------------------------------------------
                            Total      Total      Total      Total     Imperv       Perv      Total       Total     Peak  Runoff
                           Precip      Runon       Evap      Infil     Runoff     Runoff     Runoff      Runoff   Runoff   Coeff
  Subcatchment                 mm         mm         mm         mm         mm         mm         mm    10^6 ltr      CMS
  ------------------------------------------------------------------------------------------------------------------------------
  1                         46.00       0.00       0.34      25.77      18.36       0.00      18.36        7.27     1.01   0.399
  2                         46.00       0.00       0.60       9.79      32.00       0.00      32.00       28.93     4.13   0.696
  3                         46.00       0.00       0.62       8.39      33.96       0.00      33.96       13.59     1.91   0.738
  4                         46.00       0.00       0.64       7.21      35.45       0.00      35.45        2.98     0.41   0.771
  5                         46.00       0.00       0.57      11.72      31.29       0.00      31.29        3.87     0.54   0.680
  6                         46.00       0.00       0.55      13.18      30.08       0.00      30.08        2.79     0.39   0.654
  7                         46.00       0.00       0.57      11.77      30.51       0.00      30.51       13.30     1.89   0.663
  8                         46.00       0.00       0.72       2.57      39.10       0.00      39.10        5.44     0.77   0.850
  9                         46.00       0.00       0.74       1.29      40.48       0.00      40.48        4.74     0.66   0.880
  10                        46.00       0.00       0.64       7.48      34.84       0.00      34.84        7.85     1.10   0.758
  11                        46.00       0.00       0.69       4.40      37.34       0.00      37.34       18.51     2.61   0.812
  12                        46.00       0.00       0.54      13.22      29.60       0.00      29.60       14.44     2.02   0.643
  13                        46.00       0.00       0.68       4.96      36.90       0.00      36.90       16.69     2.35   0.802
  14                        46.00       0.00       0.68       5.02      37.18       0.00      37.18        7.02     0.98   0.808
  15                        46.00       0.00       0.63       8.09      34.21       0.00      34.21       11.56     1.62   0.744
  16                        46.00       0.00       0.65       6.68      35.36       0.00      35.36       10.45     1.47   0.769
  17                        46.00       0.00       0.61       9.18      33.20       0.00      33.20       13.89     1.95   0.722
  18                        46.00       0.00       0.70       3.62      38.05       0.00      38.05       15.71     2.21   0.827
  19                        46.00       0.00       0.70       3.78      37.83       0.00      37.83        8.50     1.20   0.822
  20                        46.00       0.00       0.70       4.04      37.17       0.00      37.17       19.95     2.84   0.808
  21                        46.00       0.00       0.74       1.35      40.07       0.00      40.07       12.57     1.77   0.871
  22                        46.00       0.00       0.73       2.17      39.23       0.00      39.23        4.82     0.68   0.853
  23                        46.00       0.00       0.67       5.63      36.05       0.00      36.05       20.64     2.92   0.784
  24                        46.00       0.00       0.65       7.02      34.75       0.00      34.75        6.16     0.87   0.756
  25                        46.00       0.00       0.69       4.32      37.69       0.00      37.69        7.63     1.07   0.819
  26                        46.00       0.00       0.59      10.49      31.47       0.00      31.47       11.05     1.57   0.684
  27                        46.00       0.00       0.71       3.44      37.72       0.00      37.72       15.94     2.27   0.820
  28                        46.00       0.00       0.72       2.54      38.75       0.00      38.75       18.32     2.60   0.842
  29                        46.00       0.00       0.65       7.14      35.26       0.00      35.26        8.23     1.15   0.766
  30                        46.00       0.00       0.74       1.55      40.59       0.00      40.59        2.91     0.40   0.882
  31                        46.00       0.00       0.75       0.97      40.54       0.00      40.54        8.93     1.26   0.881
  32                        46.00       0.00       0.73       2.05      39.45       0.00      39.45       17.04     2.40   0.858
  33                        46.00       0.00       0.74       1.50      39.81       0.00      39.81       14.03     1.98   0.866
  34                        46.00       0.00       0.69       4.66      37.15       0.00      37.15       10.89     1.53   0.808
  35                        46.00       0.00       0.71       3.47      38.21       0.00      38.21       15.85     2.23   0.831
  36                        46.00       0.00       0.58      10.96      31.65       0.00      31.65       12.45     1.75   0.688
  37                        46.00       0.00       0.72       2.48      39.06       0.00      39.06        8.67     1.22   0.849
  38                        46.00       0.00       0.68       5.21      36.73       0.00      36.73       14.01     1.97   0.799
  39                        46.00       0.00       0.61       9.15      33.30       0.00      33.30       14.06     1.97   0.724
  40                        46.00       0.00       0.68       4.98      36.91       0.00      36.91        8.44     1.19   0.802
  41                        46.00       0.00       0.70       4.05      38.00       0.00      38.00        7.50     1.05   0.826
  42                        46.00       0.00       0.70       4.09      37.26       0.00      37.26        9.20     1.31   0.810
  43                        46.00       0.00       0.59      10.76      31.40       0.00      31.40       24.82     3.52   0.683
  44                        46.00       0.00       0.62       8.39      33.56       0.00      33.56       16.22     2.30   0.730
  45                        46.00       0.00       0.59      10.67      31.63       0.00      31.63       22.88     3.23   0.688
  46                        46.00       0.00       0.57      11.89      30.94       0.00      30.94       15.47     2.16   0.673
  47                        46.00       0.00       0.60      10.17      32.07       0.00      32.07       37.39     5.28   0.697
  48                        46.00       0.00       0.71       3.18      37.88       0.00      37.88       21.98     3.14   0.824
  49                        46.00       0.00       0.65       6.81      34.69       0.00      34.69       23.49     3.35   0.754
  50                        46.00       0.00       0.72       2.59      38.00       0.00      38.00       14.94     2.14   0.826
  51                        46.00       0.00       0.69       4.47      36.48       0.00      36.48        6.83     0.98   0.793
  52                        46.00       0.00       0.34      25.80      18.51       0.00      18.51       18.99     2.62   0.402
  53                        46.00       0.00       0.49      16.75      26.55       0.00      26.55       28.28     3.94   0.577
  54                        46.00       0.00       0.60       9.91      32.57       0.00      32.57        7.94     1.11   0.708
  55                        46.00       0.00       0.34      25.33      18.92       0.00      18.92       14.93     2.07   0.411
  56                        46.00       0.00       0.13      38.21       7.29       0.00       7.29        5.94     0.80   0.158
  57                        46.00       0.00       0.68       5.12      36.19       0.00      36.19       30.06     4.29   0.787
  58                        46.00       0.00       0.63       8.13      34.15       0.00      34.15        5.62     0.79   0.743
  59                        46.00       0.00       0.61       9.03      33.78       0.00      33.78        4.30     0.60   0.734
  60                        46.00       0.00       0.23      32.14      12.80       0.00      12.80        3.67     0.50   0.278
  61                        46.00       0.00       0.36      24.45      19.55       0.00      19.55        7.37     1.03   0.425
  62                        46.00       0.00       0.50      16.00      26.82       0.00      26.82       31.44     4.44   0.583
  63                        46.00       0.00       0.68       5.07      35.95       0.00      35.95       69.53     9.96   0.782
  64                        46.00       0.00       0.51      15.47      27.55       0.00      27.55        5.91     0.83   0.599
  65                        46.00       0.00       0.69       4.49      36.56       0.00      36.56       24.59     3.52   0.795
  66                        46.00       0.00       0.54      13.30      29.15       0.00      29.15        7.43     1.05   0.634
  67                        46.00       0.00       0.51      15.44      27.67       0.00      27.67        8.94     1.25   0.601
  68                        46.00       0.00       0.61       9.34      33.21       0.00      33.21        3.69     0.52   0.722
  69                        46.00       0.00       0.36      24.48      19.80       0.00      19.80        6.34     0.87   0.431
  70                        46.00       0.00       0.50      15.72      27.26       0.00      27.26       22.42     3.15   0.593
  71                        46.00       0.00       0.62       8.60      33.85       0.00      33.85        4.15     0.58   0.736
  72                        46.00       0.00       0.66       6.56      35.67       0.00      35.67        4.44     0.62   0.775
  73                        46.00       0.00       0.59      10.27      32.55       0.00      32.55        5.41     0.75   0.708
  74                        46.00       0.00       0.57      11.95      30.96       0.00      30.96        6.66     0.93   0.673
  75                        46.00       0.00       0.63       8.15      34.31       0.00      34.31        4.94     0.69   0.746
  76                        46.00       0.00       0.66       6.18      36.17       0.00      36.17        3.50     0.49   0.786
  77                        46.00       0.00       0.71       3.54      38.32       0.00      38.32        4.15     0.58   0.833
  78                        46.00       0.00       0.68       5.03      36.88       0.00      36.88        4.05     0.57   0.802
  79                        46.00       0.00       0.30      28.03      16.47       0.00      16.47       17.46     2.41   0.358
  80                        46.00       0.00       0.56      12.14      30.29       0.00      30.29       18.96     2.68   0.658
  81                        46.00       0.00       0.57      11.60      30.68       0.00      30.68       13.37     1.90   0.667
  82                        46.00       0.00       0.55      13.06      29.40       0.00      29.40       26.95     3.82   0.639
  83                        46.00       0.00       0.68       4.83      37.27       0.00      37.27        4.56     0.64   0.810
  84                        46.00       0.00       0.65       7.14      34.99       0.00      34.99        4.18     0.59   0.761
  85                        46.00       0.00       0.76       0.35      41.50       0.00      41.50        3.86     0.54   0.902
  86                        46.00       0.00       0.70       3.88      38.01       0.00      38.01        5.60     0.79   0.826
  87                        46.00       0.00       0.75       0.98      40.42       0.00      40.42        5.32     0.75   0.879
  88                        46.00       0.00       0.67       5.74      36.49       0.00      36.49        3.49     0.49   0.793
  89                        46.00       0.00       0.70       3.70      38.29       0.00      38.29        7.37     1.03   0.832
  90                        46.00       0.00       0.76       0.01      42.09       0.00      42.09        0.48     0.07   0.915
  91                        46.00       0.00       0.64       7.71      33.92       0.00      33.92        7.40     1.05   0.737
  92                        46.00       0.00       0.70       3.58      38.30       0.00      38.30        4.79     0.67   0.833
  93                        46.00       0.00       0.57      11.43      31.10       0.00      31.10       15.91     2.24   0.676
  94                        46.00       0.00       0.52      14.90      28.52       0.00      28.52        2.00     0.28   0.620
  95                        46.00       0.00       0.76       0.05      41.75       0.00      41.75        0.91     0.13   0.908
  96                        46.00       0.00       0.62       8.91      33.67       0.00      33.67        4.11     0.57   0.732
  97                        46.00       0.00       0.75       0.98      40.70       0.00      40.70        4.04     0.57   0.885
  98                        46.00       0.00       0.62       8.69      33.92       0.00      33.92        4.18     0.58   0.737
  99                        46.00       0.00       0.31      27.52      16.96       0.00      16.96        6.30     0.87   0.369
  100                       46.00       0.00       0.34      25.46      18.87       0.00      18.87        4.84     0.67   0.410
  101                       46.00       0.00       0.35      24.95      19.15       0.00      19.15        9.38     1.31   0.416
  102                       46.00       0.00       0.57      11.70      30.99       0.00      30.99        7.56     1.06   0.674
  103                       46.00       0.00       0.19      34.53      10.73       0.00      10.73        3.90     0.53   0.233
  104                       46.00       0.00       0.13      38.24       7.23       0.00       7.23        7.00     0.95   0.157
  105                       46.00       0.00       0.63       8.17      34.39       0.00      34.39        4.50     0.63   0.748
  106                       46.00       0.00       0.34      25.51      18.78       0.00      18.78        4.58     0.63   0.408
  
  
  ******************
  Node Depth Summary
  ******************
  
  ---------------------------------------------------------------------------------
                                 Average  Maximum  Maximum  Time of Max    Reported
                                   Depth    Depth      HGL   Occurrence   Max Depth
  Node                 Type       Meters   Meters   Meters  days hr:min      Meters
  ---------------------------------------------------------------------------------
  jd1                  JUNCTION     0.16     0.25   273.25     0  05:00        0.25
  jd2                  JUNCTION     1.56     3.00   270.00     0  04:11        3.00
  jd3                  JUNCTION     2.57     3.00   266.00     0  03:00        3.00
  jd4                  JUNCTION     2.27     3.00   270.00     0  03:46        3.00
  jd5                  JUNCTION     0.12     0.18   274.18     0  05:00        0.18
  jd6                  JUNCTION     0.15     0.24   275.24     0  05:00        0.24
  jd7                  JUNCTION     0.42     0.63   264.73     0  05:00        0.63
  jd8                  JUNCTION     2.43     3.00   267.00     0  03:25        3.00
  jd9                  JUNCTION     2.36     3.00   268.00     0  03:25        3.00
  jd10                 JUNCTION     2.60     3.00   273.00     0  02:52        3.00
  jd11                 JUNCTION     0.13     0.21   282.21     0  05:00        0.21
  jd12                 JUNCTION     2.64     3.00   272.00     0  02:42        3.00
  jd13                 JUNCTION     0.17     0.28   289.28     0  05:00        0.28
  jd14                 JUNCTION     1.31     3.00   283.00     0  04:10        3.00
  jd15                 JUNCTION     0.40     0.68   278.68     0  05:00        0.68
  jd16                 JUNCTION     0.44     0.78   274.78     0  05:00        0.78
  jd17                 JUNCTION     2.47     3.00   278.80     0  03:19        3.00
  jd18                 JUNCTION     1.52     3.00   282.00     0  04:14        3.00
  jd19                 JUNCTION     2.19     3.00   270.00     0  03:44        3.00
  jd20                 JUNCTION     0.27     0.45   273.45     0  05:00        0.45
  jd21                 JUNCTION     2.57     3.00   273.00     0  03:19        3.00
  jd22                 JUNCTION     2.29     3.00   275.00     0  04:02        3.00
  jd23                 JUNCTION     0.90     3.00   281.00     0  04:18        3.00
  jd24                 JUNCTION     0.19     0.32   285.32     0  05:00        0.32
  jd25                 JUNCTION     0.74     3.00   282.00     0  04:22        2.62
  jd26                 JUNCTION     1.55     3.00   288.00     0  04:10        3.00
  jd27                 JUNCTION     0.76     3.00   294.00     0  04:21        3.00
  jd28                 JUNCTION     2.68     3.00   290.00     0  02:30        3.00
  jd29                 JUNCTION     0.13     0.22   299.22     0  05:00        0.22
  jd30                 JUNCTION     0.18     0.27   290.27     0  05:00        0.27
  jd31                 JUNCTION     1.27     3.00   275.00     0  03:19        2.28
  jd32                 JUNCTION     2.66     3.00   275.00     0  02:36        3.00
  jd33                 JUNCTION     0.27     0.46   289.46     0  05:00        0.46
  jd34                 JUNCTION     0.92     3.00   297.00     0  04:11        3.00
  jd35                 JUNCTION     2.73     3.00   292.00     0  02:16        3.00
  jd36                 JUNCTION     1.71     3.00   302.00     0  04:08        3.00
  jd37                 JUNCTION     1.67     3.00   306.00     0  04:07        3.00
  jd38                 JUNCTION     0.93     3.00   300.00     0  04:19        2.78
  jd39                 JUNCTION     2.59     3.00   297.00     0  02:59        3.00
  jd40                 JUNCTION     2.12     3.00   302.00     0  04:05        3.00
  jd41                 JUNCTION     2.46     3.00   296.00     0  03:29        3.00
  jd42                 JUNCTION     0.28     0.50   305.50     0  05:00        0.50
  jd43                 JUNCTION     2.11     3.00   300.00     0  04:05        3.00
  jd44                 JUNCTION     2.06     3.00   286.00     0  04:06        3.00
  jd45                 JUNCTION     2.64     3.00   282.00     0  02:45        3.00
  jd46                 JUNCTION     0.85     3.00   278.00     0  04:26        3.00
  jd47                 JUNCTION     0.21     0.34   315.34     0  05:00        0.34
  jd48                 JUNCTION     0.15     0.25   325.25     0  05:00        0.25
  jd49                 JUNCTION     0.76     3.00   292.00     0  04:28        3.00
  jd50                 JUNCTION     2.70     3.00   278.00     0  02:27        3.00
  jd51                 JUNCTION     2.42     3.00   313.00     0  03:33        3.00
  jd52                 JUNCTION     1.22     3.00   326.00     0  04:12        2.03
  jd53                 JUNCTION     1.71     3.00   325.00     0  04:11        3.00
  jd54                 JUNCTION     0.42     0.78   326.78     0  05:00        0.78
  jd55                 JUNCTION     2.11     3.00   325.00     0  04:12        3.00
  jd56                 JUNCTION     0.28     0.49   327.49     0  05:00        0.49
  jd59                 JUNCTION     2.38     3.00   320.80     0  03:38        3.00
  jd60                 JUNCTION     2.64     3.00   319.00     0  02:41        3.00
  jd61                 JUNCTION     0.20     0.34   329.34     0  05:00        0.34
  jd62                 JUNCTION     0.09     0.14   335.14     0  05:00        0.14
  jd63                 JUNCTION     0.10     0.15   324.15     0  05:00        0.15
  jd64                 JUNCTION     2.27     3.00   321.00     0  03:38        3.00
  jd65                 JUNCTION     2.41     3.00   307.00     0  03:27        3.00
  jd66                 JUNCTION     2.59     3.00   304.00     0  02:57        3.00
  jd69                 JUNCTION     0.34     0.59   333.59     0  05:00        0.59
  jd79                 JUNCTION     2.64     3.00   274.00     0  02:34        3.00
  jd80                 JUNCTION     2.49     3.00   279.00     0  03:14        3.00
  jd81                 JUNCTION     0.21     0.36   288.36     0  05:00        0.36
  jd83                 JUNCTION     2.73     3.00   323.00     0  02:15        3.00
  jd84                 JUNCTION     1.01     3.00   326.00     0  04:08        3.00
  jd85                 JUNCTION     2.59     3.00   324.00     0  02:54        3.00
  jd87                 JUNCTION     2.62     3.00   322.00     0  02:47        3.00
  jd89                 JUNCTION     0.23     0.44   324.44     0  05:00        0.44
  jd90                 JUNCTION     0.20     0.33   328.33     0  05:00        0.33
  jd92                 JUNCTION     0.22     0.43   326.43     0  05:00        0.43
  jd93                 JUNCTION     1.73     3.00   327.00     0  04:10        3.00
  jd94                 JUNCTION     1.03     3.00   329.20     0  04:14        2.31
  jd95                 JUNCTION     1.15     3.00   330.00     0  04:14        2.85
  jd96                 JUNCTION     2.64     3.00   308.00     0  02:43        3.00
  jd97                 JUNCTION     1.19     3.00   330.20     0  04:12        3.00
  jd98                 JUNCTION     0.28     0.52   329.52     0  05:00        0.52
  jd99                 JUNCTION     2.57     3.00   327.00     0  02:58        3.00
  jd101                JUNCTION     0.15     0.24   321.24     0  05:00        0.24
  jd102                JUNCTION     0.86     3.00   327.00     0  04:15        3.00
  jd103                JUNCTION     0.16     0.26   318.26     0  05:00        0.26
  jd106                JUNCTION     2.48     3.00   287.00     0  03:19        3.00
  jd107                JUNCTION     0.29     0.48   332.48     0  05:00        0.48
  jd108                JUNCTION     1.25     1.64   327.64     0  05:00        1.64
  jd109                JUNCTION     0.24     0.41   343.41     0  05:00        0.41
  jd110                JUNCTION     2.60     3.00   327.00     0  02:56        3.00
  jd111                JUNCTION     0.10     0.16   344.16     0  05:00        0.16
  jd112                JUNCTION     0.13     0.21   334.21     0  05:00        0.21
  jd113                JUNCTION     0.14     0.23   348.23     0  05:00        0.23
  jd114                JUNCTION     2.63     3.00   317.00     0  02:44        3.00
  jd117                JUNCTION     1.74     3.00   319.00     0  04:09        3.00
  jd118                JUNCTION     0.13     0.21   330.21     0  05:00        0.21
  jd120                JUNCTION     0.25     0.50   327.50     0  05:00        0.50
  jd121                JUNCTION     0.24     0.42   320.42     0  05:00        0.42
  jd122                JUNCTION     2.57     3.00   276.00     0  03:02        3.00
  jd123                JUNCTION     2.56     3.00   276.20     0  03:02        3.00
  jd124                JUNCTION     2.78     3.00   271.00     0  01:58        3.00
  jd125                JUNCTION     2.24     3.00   278.00     0  03:43        3.00
  jd126                JUNCTION     2.73     3.00   275.00     0  02:15        3.00
  jd135                JUNCTION     0.21     0.38   289.38     0  05:00        0.38
  jd136                JUNCTION     0.39     0.71   341.71     0  05:00        0.71
  psk1                 OUTFALL      0.13     0.21   279.21     0  05:00        0.21
  psk2                 OUTFALL      0.17     0.27   270.27     0  05:00        0.27
  psk3                 OUTFALL      0.44     0.78   271.78     0  05:00        0.78
  psk4                 OUTFALL      0.00     0.00   280.00     0  00:00        0.00
  psk5                 OUTFALL      0.16     0.25   263.25     0  05:00        0.25
  psk6                 OUTFALL      0.12     0.18   259.18     0  05:00        0.18
  psk7                 OUTFALL      0.42     0.62   262.62     0  05:00        0.62
  psk8                 OUTFALL      0.00     0.00   317.00     0  00:00        0.00
  
  
  *******************
  Node Inflow Summary
  *******************
  
  -------------------------------------------------------------------------------------------------
                                  Maximum  Maximum                  Lateral       Total        Flow
                                  Lateral    Total  Time of Max      Inflow      Inflow     Balance
                                   Inflow   Inflow   Occurrence      Volume      Volume       Error
  Node                 Type           CMS      CMS  days hr:min    10^6 ltr    10^6 ltr     Percent
  -------------------------------------------------------------------------------------------------
  jd1                  JUNCTION     1.014    1.356     0  05:00        7.22        10.7       0.735
  jd2                  JUNCTION     1.573    2.049     0  05:00          11        14.7       0.982
  jd3                  JUNCTION     1.886    3.605     0  05:00        13.2          32       1.275
  jd4                  JUNCTION     2.271    2.514     0  05:00        15.8        17.6       1.604
  jd5                  JUNCTION     0.663    1.043     0  05:00        4.71        7.76       0.349
  jd6                  JUNCTION     0.765    0.765     0  05:00        5.41        5.41       0.436
  jd7                  JUNCTION     0.386    2.989     0  05:00        2.78        27.3       0.646
  jd8                  JUNCTION     0.537    1.483     0  05:00        3.85        16.4       1.513
  jd9                  JUNCTION     0.412    1.480     0  05:00        2.96        16.4       1.358
  jd10                 JUNCTION     1.099    1.387     0  05:00         7.8        9.87       1.041
  jd11                 JUNCTION     1.622    1.622     0  05:00        11.5        11.5       0.535
  jd12                 JUNCTION     1.222    2.713     0  05:00        8.62        18.9       0.744
  jd13                 JUNCTION     2.215    2.215     0  05:00        15.6        15.6       0.418
  jd14                 JUNCTION     2.598    2.945     0  05:00        18.2        20.6       0.688
  jd15                 JUNCTION     1.069    2.033     0  05:00        7.59        16.1       1.824
  jd16                 JUNCTION     1.149    4.428     0  05:00        8.18        31.7       0.753
  jd17                 JUNCTION     2.404    4.714     0  05:00        16.9        37.2       2.176
  jd18                 JUNCTION     1.905    2.791     0  05:00        13.5        19.7       1.236
  jd19                 JUNCTION     1.769    3.132     0  05:00        12.6          23       0.890
  jd20                 JUNCTION     1.470    1.722     0  05:00        10.4        13.8       0.893
  jd21                 JUNCTION     0.682    3.574     0  05:00         4.8        30.8       1.121
  jd22                 JUNCTION     1.201    2.198     0  05:00        8.45        17.1       0.489
  jd23                 JUNCTION     1.187    3.543     0  05:00        8.39        24.4       0.511
  jd24                 JUNCTION     1.951    1.951     0  05:00        13.8        13.8       0.527
  jd25                 JUNCTION     1.534    2.241     0  05:00        10.8        15.7       0.779
  jd26                 JUNCTION     2.233    3.449     0  05:00        15.8        25.2       0.752
  jd27                 JUNCTION     2.299    2.922     0  05:00        16.1        23.5       0.756
  jd28                 JUNCTION     3.136    4.043     0  05:00        21.8          29       0.473
  jd29                 JUNCTION     1.257    1.257     0  05:00        8.88        8.88       0.358
  jd30                 JUNCTION     1.308    3.286     0  05:00        9.15        25.8       0.416
  jd31                 JUNCTION     0.874    1.711     0  05:00        6.13        12.8       3.570
  jd32                 JUNCTION     1.773    5.106     0  05:00        12.5        43.3       0.593
  jd33                 JUNCTION     1.746    2.805     0  05:00        12.4        20.6       0.447
  jd34                 JUNCTION     2.159    2.159     0  05:00        15.4        15.4       0.353
  jd35                 JUNCTION     1.970    4.151     0  05:00          14        36.8       0.374
  jd36                 JUNCTION     3.349    4.409     0  05:00        23.3          34       0.946
  jd37                 JUNCTION     3.520    3.520     0  05:00        24.7        24.7       0.572
  jd38                 JUNCTION     3.233    4.056     0  05:00        22.7        32.8       1.259
  jd39                 JUNCTION     2.239    5.676     0  05:00        15.8        48.2       1.082
  jd40                 JUNCTION     3.818    6.009     0  05:00        26.8        51.6       1.708
  jd41                 JUNCTION     2.681    8.344     0  05:00        18.8        64.1       3.431
  jd42                 JUNCTION     3.519    3.857     0  05:00        24.4        26.9       0.789
  jd43                 JUNCTION     3.945    6.276     0  05:00        28.1        47.6       1.619
  jd44                 JUNCTION     5.283    8.160     0  05:00        37.2        68.8       2.065
  jd45                 JUNCTION     2.145    4.370     0  05:00        14.8        41.6       0.799
  jd46                 JUNCTION     0.978    0.978     0  05:00        6.78        6.78       2.409
  jd47                 JUNCTION     3.153    3.153     0  05:00        22.3        22.3       0.609
  jd48                 JUNCTION     0.872    0.872     0  05:00         6.3         6.3       0.612
  jd49                 JUNCTION     4.287    4.287     0  05:00        29.9        29.9       0.651
  jd50                 JUNCTION     4.445    8.375     0  05:00        31.2        68.2       0.651
  jd51                 JUNCTION     0.928    4.234     0  05:00        6.62        30.1       4.773
  jd52                 JUNCTION     1.895    5.452     0  04:12        13.3        32.1       1.530
  jd53                 JUNCTION     1.054    4.007     0  05:00        7.35        31.6       0.756
  jd54                 JUNCTION     0.566    2.813     0  05:00        4.02        19.9       0.825
  jd55                 JUNCTION     1.032    4.460     0  05:00        7.33        27.7       3.692
  jd56                 JUNCTION     0.627    1.834     0  05:00        4.47        13.1       0.669
  jd59                 JUNCTION     0.622    3.072     0  05:00        4.42        21.4       3.732
  jd60                 JUNCTION     1.114    2.363     0  05:00        7.89        16.8       0.780
  jd61                 JUNCTION     1.250    1.406     0  05:00        8.89          10       0.476
  jd62                 JUNCTION     0.503    0.503     0  05:00        3.65        3.65       0.256
  jd63                 JUNCTION     0.691    0.691     0  05:00        4.91        4.91       0.347
  jd64                 JUNCTION     0.582    1.436     0  05:00        4.12        10.2       3.813
  jd65                 JUNCTION     9.963    9.963     0  05:00        69.1        69.1       0.315
  jd66                 JUNCTION     1.305    3.785     0  05:00        9.33        27.1       1.188
  jd69                 JUNCTION     2.413    2.480     0  05:00        17.4        17.8       0.670
  jd79                 JUNCTION     2.350    3.266     0  05:00        16.6        26.6       0.672
  jd80                 JUNCTION     2.610    3.218     0  05:00        18.4          24       0.642
  jd81                 JUNCTION     1.984    1.984     0  05:00        13.9        13.9       0.189
  jd83                 JUNCTION     2.065    2.644     0  05:00        14.8          19       0.462
  jd84                 JUNCTION     2.625    2.625     0  05:00        18.9        18.9       0.537
  jd85                 JUNCTION     0.596    0.975     0  05:00        4.28        7.01       1.231
  jd87                 JUNCTION     0.488    1.179     0  05:00        3.48        8.38       0.900
  jd89                 JUNCTION     0.570    0.570     0  05:00        4.03        4.03       0.699
  jd90                 JUNCTION     0.581    0.581     0  05:00        4.13        4.13       0.528
  jd92                 JUNCTION     0.488    0.488     0  05:00        3.47        3.47       0.387
  jd93                 JUNCTION     1.053    2.019     0  05:00        7.38        15.2       0.952
  jd94                 JUNCTION     0.067    1.050     0  04:14        0.48        7.92       0.864
  jd95                 JUNCTION     0.127    0.988     0  04:14       0.906        7.53       1.135
  jd96                 JUNCTION     0.952    1.270     0  05:00        6.96        9.21       1.060
  jd97                 JUNCTION     1.028    1.028     0  05:00        7.32        7.32       0.295
  jd98                 JUNCTION     0.574    0.574     0  05:00        4.09        4.09       0.455
  jd99                 JUNCTION     0.276    0.587     0  05:00        1.99        5.06       1.142
  jd101                JUNCTION     0.752    1.449     0  05:00        5.38        10.5       0.479
  jd102                JUNCTION     0.749    0.749     0  05:00        5.28        5.28       0.610
  jd103                JUNCTION     0.516    0.516     0  05:00        3.67        3.67       0.212
  jd106                JUNCTION     0.404    2.301     0  05:00        2.89        16.6       2.372
  jd107                JUNCTION     0.582    1.916     0  05:00        4.16        13.6       0.780
  jd108                JUNCTION     0.633    0.633     0  05:00        4.56        4.58       1.450
  jd109                JUNCTION     1.059    1.059     0  05:00        7.51        7.51       0.204
  jd110                JUNCTION     0.804    1.197     0  05:00        5.91        8.73       1.769
  jd111                JUNCTION     0.667    0.667     0  05:00        4.81        4.81       0.422
  jd112                JUNCTION     0.786    2.182     0  05:00        5.57        15.6       0.334
  jd113                JUNCTION     0.528    0.528     0  05:00        3.88        3.88       0.147
  jd114                JUNCTION     0.637    4.353     0  05:00        4.53        42.8       0.758
  jd117                JUNCTION     0.587    1.916     0  05:00        4.15        13.8       1.169
  jd118                JUNCTION     0.538    0.538     0  05:00        3.84        3.84       0.111
  jd120                JUNCTION     0.671    0.671     0  05:00        4.76        4.76       0.345
  jd121                JUNCTION     0.830    0.830     0  05:00        5.88        5.88       0.419
  jd122                JUNCTION     1.970    6.350     0  05:00        13.9        50.3       1.137
  jd123                JUNCTION     2.025    4.514     0  05:00        14.4        41.5       1.738
  jd124                JUNCTION     2.923    3.996     0  05:00        20.5        34.8       0.187
  jd125                JUNCTION     2.843    4.518     0  05:00        19.8        41.4       1.005
  jd126                JUNCTION     4.129    4.992     0  05:00        28.8        37.5       0.285
  jd135                JUNCTION     1.048    1.048     0  05:00        7.45        7.45       0.319
  jd136                JUNCTION     0.869    1.397     0  05:00        6.26        10.1       0.822
  psk1                 OUTFALL      0.000    1.060     0  05:00           0        7.49       0.000
  psk2                 OUTFALL      0.000    2.513     0  05:00           0        19.4       0.000
  psk3                 OUTFALL      0.000    4.427     0  05:00           0        31.5       0.000
  psk4                 OUTFALL      0.000    0.000     0  00:00           0           0       0.000 ltr
  psk5                 OUTFALL      0.000    0.881     0  05:00           0        6.88       0.000
  psk6                 OUTFALL      0.000    0.799     0  05:00           0        5.93       0.000
  psk7                 OUTFALL      0.000    2.989     0  05:00           0        27.1       0.000
  psk8                 OUTFALL      0.000    0.000     0  00:00           0           0       0.000 ltr
  
  
  **********************
  Node Surcharge Summary
  **********************
  
  Surcharging occurs when water rises above the top of the highest conduit.
  ---------------------------------------------------------------------
                                               Max. Height   Min. Depth
                                   Hours       Above Crown    Below Rim
  Node                 Type      Surcharged         Meters       Meters
  ---------------------------------------------------------------------
  jd2                  JUNCTION        2.04          2.200        0.000
  jd3                  JUNCTION        4.01          2.200        0.000
  jd4                  JUNCTION        3.22          2.200        0.000
  jd8                  JUNCTION        3.76          2.200        0.000
  jd9                  JUNCTION        3.57          2.200        0.000
  jd10                 JUNCTION        4.14          2.400        0.000
  jd12                 JUNCTION        4.30          2.400        0.000
  jd14                 JUNCTION        1.90          2.400        0.000
  jd17                 JUNCTION        3.68          2.200        0.000
  jd18                 JUNCTION        1.89          2.000        0.000
  jd19                 JUNCTION        3.26          2.200        0.000
  jd21                 JUNCTION        4.08          2.200        0.000
  jd22                 JUNCTION        3.77          2.400        0.000
  jd23                 JUNCTION        1.00          2.000        0.000
  jd25                 JUNCTION        0.75          2.000        0.000
  jd26                 JUNCTION        1.93          2.400        0.000
  jd27                 JUNCTION        0.81          2.400        0.000
  jd28                 JUNCTION        4.50          2.400        0.000
  jd31                 JUNCTION        3.68          2.200        0.000
  jd32                 JUNCTION        4.40          2.200        0.000
  jd34                 JUNCTION        1.01          2.400        0.000
  jd35                 JUNCTION        4.73          2.400        0.000
  jd36                 JUNCTION        2.24          2.400        0.000
  jd37                 JUNCTION        2.14          2.400        0.000
  jd38                 JUNCTION        0.94          2.000        0.000
  jd39                 JUNCTION        4.02          2.000        0.000
  jd40                 JUNCTION        2.92          2.200        0.000
  jd41                 JUNCTION        3.51          1.000        0.000
  jd43                 JUNCTION        2.91          2.200        0.000
  jd44                 JUNCTION        2.89          2.000        0.000
  jd45                 JUNCTION        4.25          2.000        0.000
  jd46                 JUNCTION        0.88          2.200        0.000
  jd49                 JUNCTION        0.65          2.200        0.000
  jd50                 JUNCTION        4.56          2.200        0.000
  jd51                 JUNCTION        3.45          1.350        0.000
  jd52                 JUNCTION        2.05          1.500        0.000
  jd53                 JUNCTION        2.18          1.800        0.000
  jd55                 JUNCTION        3.21          1.500        0.000
  jd59                 JUNCTION        3.37          1.500        0.000
  jd60                 JUNCTION        4.32          2.400        0.000
  jd64                 JUNCTION        3.39          1.800        0.000
  jd65                 JUNCTION        3.55          2.400        0.000
  jd66                 JUNCTION        4.05          2.200        0.000
  jd79                 JUNCTION        4.43          2.400        0.000
  jd80                 JUNCTION        3.77          2.400        0.000
  jd83                 JUNCTION        4.75          2.400        0.000
  jd84                 JUNCTION        1.20          2.400        0.000
  jd85                 JUNCTION        4.11          2.400        0.000
  jd87                 JUNCTION        4.22          2.400        0.000
  jd93                 JUNCTION        2.27          2.200        0.000
  jd94                 JUNCTION        1.93          2.200        0.000
  jd95                 JUNCTION        1.86          2.200        0.000
  jd96                 JUNCTION        4.28          2.200        0.000
  jd97                 JUNCTION        1.86          2.200        0.000
  jd99                 JUNCTION        4.04          2.400        0.000
  jd102                JUNCTION        0.91          2.400        0.000
  jd106                JUNCTION        3.68          2.000        0.000
  jd108                JUNCTION        4.25          0.640        1.360
  jd110                JUNCTION        4.06          2.000        0.000
  jd114                JUNCTION        4.28          2.000        0.000
  jd117                JUNCTION        4.02          2.200        0.000
  jd122                JUNCTION        4.05          2.200        0.000
  jd123                JUNCTION        3.97          2.200        0.000
  jd124                JUNCTION        5.04          2.400        0.000
  jd125                JUNCTION        3.28          2.200        0.000
  jd126                JUNCTION        4.76          2.400        0.000
  
  
  *********************
  Node Flooding Summary
  *********************
  
  Flooding refers to all water that overflows a node, whether it ponds or not.
  --------------------------------------------------------------------------
                                                             Total   Maximum
                                 Maximum   Time of Max       Flood    Ponded
                        Hours       Rate    Occurrence      Volume     Depth
  Node                 Flooded       CMS   days hr:min    10^6 ltr    Meters
  --------------------------------------------------------------------------
  jd2                     1.30     0.840      0  05:00       2.502     0.000
  jd3                     4.00     3.605      0  05:00      31.565     0.000
  jd4                     3.22     2.004      0  05:00      10.682     0.000
  jd8                     3.02     0.372      0  05:00       2.109     0.000
  jd9                     3.01     0.534      0  05:00       3.637     0.000
  jd10                    4.13     1.387      0  05:00       9.769     0.000
  jd12                    4.30     2.713      0  05:00      18.748     0.000
  jd14                    1.08     1.118      0  05:00       3.150     0.000
  jd17                    3.68     3.885      0  05:00      25.016     0.000
  jd18                    1.21     1.267      0  05:00       3.821     0.000
  jd19                    2.26     2.065      0  05:00       9.308     0.000
  jd21                    3.68     3.574      0  05:00      30.107     0.000
  jd22                    2.33     1.374      0  05:00       6.733     0.000
  jd23                    0.68     0.605      0  04:18       1.129     0.000
  jd25                    0.01     0.652      0  04:22       0.009     0.000
  jd26                    1.84     1.553      0  05:00       5.087     0.000
  jd27                    0.39     0.324      0  04:21       0.044     0.000
  jd28                    4.50     4.043      0  05:00      28.898     0.000
  jd31                    0.01     0.667      0  03:19       0.008     0.000
  jd32                    4.39     5.106      0  05:00      43.070     0.000
  jd34                    0.85     0.353      0  05:00       0.883     0.000
  jd35                    4.73     4.151      0  05:00      36.663     0.000
  jd36                    2.03     2.352      0  05:00       9.635     0.000
  jd37                    2.00     2.159      0  05:00       8.223     0.000
  jd38                    0.01     0.574      0  04:19       0.007     0.000
  jd39                    4.02     5.676      0  05:00      47.706     0.000
  jd40                    2.70     3.447      0  05:00      19.253     0.000
  jd41                    3.51     8.344      0  05:00      62.020     0.000
  jd43                    2.61     4.444      0  05:00      22.888     0.000
  jd44                    2.22     4.259      0  05:00      19.148     0.000
  jd45                    4.24     4.370      0  05:00      41.241     0.000
  jd46                    0.62     0.237      0  04:26       0.242     0.000
  jd49                    0.58     0.415      0  04:28       0.644     0.000
  jd50                    4.55     8.375      0  05:00      67.751     0.000
  jd51                    3.44     4.233      0  05:00      28.777     0.000
  jd52                    0.02     2.893      0  04:12       0.080     0.000
  jd53                    1.14     1.705      0  05:00       5.255     0.000
  jd55                    2.00     4.460      0  05:00      20.278     0.000
  jd59                    3.37     3.072      0  05:00      20.643     0.000
  jd60                    4.32     2.363      0  05:00      16.674     0.000
  jd64                    0.01     0.304      0  03:38       0.007     0.000
  jd65                    3.55     8.870      0  05:00      53.292     0.000
  jd66                    4.05     3.785      0  05:00      26.743     0.000
  jd79                    3.92     3.014      0  05:00      22.979     0.000
  jd80                    3.68     3.060      0  05:00      21.310     0.000
  jd83                    4.75     2.644      0  05:00      18.919     0.000
  jd84                    0.97     0.785      0  05:00       2.323     0.000
  jd85                    4.10     0.975      0  05:00       6.929     0.000
  jd87                    4.22     1.179      0  05:00       8.304     0.000
  jd93                    1.80     0.836      0  05:00       2.726     0.000
  jd94                    0.01     0.723      0  04:14       0.013     0.000
  jd95                    0.01     0.037      0  04:14       0.001     0.000
  jd96                    4.27     1.270      0  05:00       9.119     0.000
  jd97                    0.84     0.257      0  05:00       0.680     0.000
  jd99                    4.03     0.587      0  05:00       5.000     0.000
  jd102                   0.66     0.081      0  04:15       0.097     0.000
  jd106                   3.67     2.301      0  05:00      16.225     0.000
  jd110                   4.06     1.197      0  05:00       8.582     0.000
  jd114                   4.03     4.353      0  05:00      42.405     0.000
  jd117                   0.96     0.502      0  05:00       1.392     0.000
  jd122                   3.97     6.350      0  05:00      49.678     0.000
  jd123                   3.97     4.199      0  05:00      36.274     0.000
  jd124                   5.03     3.996      0  05:00      34.757     0.000
  jd125                   2.70     2.132      0  05:00      10.347     0.000
  jd126                   4.75     4.992      0  05:00      37.384     0.000
  
  
  ***********************
  Outfall Loading Summary
  ***********************
  
  -----------------------------------------------------------
                         Flow       Avg       Max       Total
                         Freq      Flow      Flow      Volume
  Outfall Node           Pcnt       CMS       CMS    10^6 ltr
  -----------------------------------------------------------
  psk1                  96.38     0.509     1.060       7.487
  psk2                  96.38     1.326     2.513      19.357
  psk3                  96.35     2.164     4.427      31.507
  psk4                   0.00     0.000     0.000       0.000
  psk5                  96.32     0.466     0.881       6.884
  psk6                  96.32     0.402     0.799       5.931
  psk7                  96.32     1.789     2.989      27.112
  psk8                   0.00     0.000     0.000       0.000
  -----------------------------------------------------------
  System                72.26     6.657     0.000      98.277
  
  
  ********************
  Link Flow Summary
  ********************
  
  -----------------------------------------------------------------------------
                                 Maximum  Time of Max   Maximum    Max/    Max/
                                  |Flow|   Occurrence   |Veloc|    Full    Full
  Link                 Type          CMS  days hr:min     m/sec    Flow   Depth
  -----------------------------------------------------------------------------
  GQ1                  CONDUIT     0.355     0  04:16      1.94    0.93    0.71
  GQ2                  CONDUIT     1.690     0  05:00      2.79    0.80    0.73
  GQ3                  CONDUIT     1.060     0  05:00      7.28    0.04    0.14
  GQ4                  CONDUIT     0.510     0  04:23      1.80    1.00    1.00
  GQ5                  CONDUIT     1.208     0  04:27      2.40    1.00    1.00
  GQ6                  CONDUIT     0.476     0  05:00      1.36    0.21    0.66
  GQ7                  CONDUIT     1.675     0  05:24      3.58    1.00    1.00
  GQ8                  CONDUIT     1.045     0  04:50      2.08    1.00    1.00
  GQ9                  CONDUIT     2.837     0  05:02      5.73    1.00    1.00
  GQ10                 CONDUIT     1.135     0  03:26      4.07    1.04    1.00
  GQ11                 CONDUIT     0.338     0  05:00      2.06    0.36    0.62
  GQ12                 CONDUIT     0.417     0  05:00      1.87    0.45    0.74
  GQ13                 CONDUIT     0.243     0  05:00      0.75    0.12    0.61
  GQ14                 CONDUIT     0.133     0  05:00      1.24    0.19    0.27
  GQ15                 CONDUIT     0.247     0  04:40      4.41    1.00    0.78
  GQ16                 CONDUIT     1.978     0  05:00      4.03    0.96    0.64
  GQ17                 CONDUIT     0.633     0  05:00      2.27    0.20    0.54
  GQ18                 CONDUIT     1.111     0  05:00      2.50    5.01    0.89
  GQ19                 CONDUIT     0.859     0  05:00      2.74    0.10    0.42
  GQ20                 CONDUIT     0.188     0  05:00      0.50    0.10    0.61
  GQ21                 CONDUIT     0.698     0  05:00      1.55    0.22    0.66
  GQ22                 CONDUIT     0.707     0  05:00      1.89    0.22    0.66
  GQ23                 CONDUIT     1.611     0  05:00      2.34    0.79    1.00
  GQ24                 CONDUIT     2.020     0  04:37      4.02    1.00    1.00
  GQ25                 CONDUIT     1.059     0  05:00      4.10    1.19    0.88
  GQ26                 CONDUIT     0.757     0  04:22      2.91    0.89    0.88
  GQ27                 CONDUIT     0.997     0  04:34      3.52    1.00    1.00
  GQ28                 CONDUIT     0.358     0  05:00      0.85    0.38    0.78
  GQ29                 CONDUIT     1.711     0  05:00      3.40    0.80    1.00
  GQ30                 CONDUIT     0.824     0  04:15      2.91    1.00    1.00
  GQ31                 CONDUIT     0.747     0  04:38      2.64    1.00    1.00
  GQ32                 CONDUIT     0.739     0  04:21      2.92    1.19    1.00
  GQ33                 CONDUIT     1.434     0  04:24      5.07    1.00    1.00
  GQ34                 CONDUIT     0.521     0  05:00      1.92    0.82    0.91
  GQ35                 CONDUIT     0.710     0  04:08      2.52    1.32    1.00
  GQ36                 CONDUIT     0.974     0  04:07      3.45    1.21    1.00
  GQ37                 CONDUIT     0.699     0  04:53      2.47    1.00    1.00
  GQ38                 CONDUIT     0.208     0  05:00      0.94    0.30    0.73
  GQ39                 CONDUIT     0.782     0  04:25      2.76    1.00    1.00
  GQ40                 CONDUIT     0.804     0  04:44      2.84    1.00    1.00
  GQ41                 CONDUIT     2.077     0  05:00      2.64    0.96    1.00
  GQ42                 CONDUIT     1.359     0  04:32      2.70    1.00    1.00
  GQ43                 CONDUIT     2.306     0  06:32      4.70    1.03    1.00
  GQ44                 CONDUIT     0.946     0  04:22      1.88    1.00    1.00
  GQ45                 CONDUIT     1.363     0  05:00      3.24    0.55    0.78
  GQ46                 CONDUIT     1.068     0  05:07      2.12    1.00    1.00
  GQ47                 CONDUIT     0.288     0  05:00      1.41    0.27    0.68
  GQ48                 CONDUIT     0.287     0  05:00      1.40    0.27    0.68
  GQ49                 CONDUIT     1.204     0  05:00      5.40    0.45    0.74
  GQ50                 CONDUIT     0.346     0  05:00      1.55    0.45    0.74
  GQ51                 CONDUIT     0.995     0  05:14      3.61    1.52    1.00
  GQ52                 CONDUIT     0.854     0  05:03      1.70    1.14    1.00
  GQ53                 CONDUIT     2.225     0  04:44      2.83    1.00    1.00
  GQ54                 CONDUIT     0.715     0  05:00      3.01    0.61    0.78
  GQ55                 CONDUIT     0.534     0  05:00      2.49    0.36    0.71
  GQ56                 CONDUIT     1.962     0  04:06      3.99    1.07    1.00
  GQ57                 CONDUIT     1.070     0  05:00      2.45    0.70    0.81
  GQ58                 CONDUIT     2.262     0  05:00      5.18    0.71    0.81
  GQ59                 CONDUIT     1.203     0  04:53      2.39    1.00    1.00
  GQ60                 CONDUIT     2.874     0  04:12      1.71    0.69    1.00
  GQ61                 CONDUIT     0.444     0  05:00      0.42    0.06    0.58
  GQ62                 CONDUIT     0.954     0  05:00      0.71    0.10    0.60
  GQ63                 CONDUIT     2.198     0  05:00      1.15    0.06    0.59
  GQ64                 CONDUIT     0.155     0  05:00      1.57    0.12    0.40
  GQ65                 CONDUIT     0.067     0  05:00      0.40    0.12    0.60
  GQ66                 CONDUIT     0.274     0  05:00      0.87    0.08    0.60
  GQ67                 CONDUIT     1.436     0  05:00      1.27    1.00    1.00
  GQ68                 CONDUIT     1.523     0  05:00      2.42    0.48    0.75
  GQ69                 CONDUIT     2.480     0  05:00      5.36    0.88    0.87
  GQ70                 CONDUIT     0.799     0  05:00      9.21    0.11    0.23
  GQ71                 CONDUIT     0.881     0  05:00      6.50    0.21    0.31
  GQ72                 CONDUIT     2.989     0  05:00      5.79    0.71    0.63
  GQ73                 CONDUIT     2.513     0  05:00     14.41    0.16    0.27
  GQ74                 CONDUIT     0.560     0  05:00      1.60    0.10    0.50
  GQ75                 CONDUIT     0.565     0  05:00      1.07    0.17    0.64
  GQ76                 CONDUIT     4.427     0  05:00      6.70    0.96    0.78
  GQ77                 CONDUIT     0.000     0  00:00      0.00    0.00    0.34
  GQ78                 CONDUIT     0.916     0  05:00      3.24    1.00    1.00
  GQ79                 CONDUIT     0.252     0  04:25      1.08    0.54    0.87
  GQ80                 CONDUIT     0.608     0  04:40      2.15    1.00    1.00
  GQ81                 CONDUIT     0.469     0  03:19      1.66    2.97    1.00
  GQ82                 CONDUIT     0.954     0  05:00      3.95    0.66    0.80
  GQ83                 CONDUIT     1.029     0  05:00      4.27    0.66    0.80
  GQ84                 CONDUIT     1.303     0  05:23      4.70    1.03    1.00
  GQ85                 CONDUIT     0.579     0  04:34      2.05    1.00    1.00
  GQ86                 CONDUIT     0.280     0  05:00      1.53    0.12    0.62
  GQ87                 CONDUIT     0.099     0  05:00      0.53    0.15    0.63
  GQ88                 CONDUIT     0.690     0  05:00      2.91    0.61    0.78
  GQ89                 CONDUIT     0.570     0  05:00      2.19    0.75    0.86
  GQ90                 CONDUIT     0.581     0  05:00      2.47    0.58    0.77
  GQ91                 CONDUIT     0.488     0  05:00      1.89    0.60    0.86
  GQ92                 CONDUIT     0.988     0  04:14      2.17    1.42    1.00
  GQ93                 CONDUIT     0.966     0  05:00      1.92    0.83    1.00
  GQ94                 CONDUIT     1.238     0  04:11      2.46    1.47    1.00
  GQ95                 CONDUIT     0.318     0  05:00      1.02    0.08    0.60
  GQ96                 CONDUIT     0.875     0  04:14      1.74    1.49    1.00
  GQ97                 CONDUIT     0.574     0  05:00      2.28    1.04    0.84
  GQ98                 CONDUIT     0.311     0  05:00      1.15    0.44    0.91
  GQ99                 CONDUIT     1.006     0  05:00      0.95    0.06    0.58
  GQ100                CONDUIT     0.698     0  05:00      3.31    1.20    0.70
  GQ101                CONDUIT     0.516     0  05:00      2.38    0.39    0.72
  GQ102                CONDUIT     2.060     0  05:00      4.86    0.63    0.79
  GQ103                CONDUIT     0.630     0  05:00      2.23    0.97    1.00
  GQ104                CONDUIT     1.389     0  04:20      5.01    1.01    1.00
  GQ105                CONDUIT     0.315     0  04:36      0.63    1.00    1.00
  GQ106                CONDUIT     0.546     0  05:00      2.36    0.55    0.76
  GQ107                CONDUIT     1.114     0  04:25      3.94    1.00    1.00
  GQ108                CONDUIT     0.829     0  04:38      1.65    1.00    1.00
  GQ109                CONDUIT     0.412     0  05:00      1.66    0.56    0.82
  GQ110                CONDUIT     0.697     0  05:00      1.39    0.10    0.61
  GQ111                CONDUIT     0.636     0  05:00      2.57    0.58    0.82
  GQ112                CONDUIT     1.915     0  05:00      3.44    0.34    0.53
  GQ113                CONDUIT     1.059     0  05:00      4.71    0.80    0.74
  GQ114                CONDUIT     0.633     0  05:00      1.01    0.26    0.75
  GQ115                CONDUIT     0.274     0  05:00      1.14    0.04    0.27
  GQ116                CONDUIT     0.393     0  05:00      0.83    0.05    0.58
  GQ117                CONDUIT     1.397     0  05:00      4.84    0.87    0.57
  GQ118                CONDUIT     0.528     0  05:00      2.27    0.18    0.59
  GQ119                CONDUIT     2.302     0  04:28      4.58    1.00    1.00
  GQ120                CONDUIT     0.000     0  00:00      0.00    0.00    0.50
  GQ121                CONDUIT     1.414     0  05:05      2.81    1.00    1.00
  GQ122                CONDUIT     0.791     0  05:00      2.38    0.14    0.63
  GQ123                CONDUIT     0.538     0  05:00      2.65    0.26    0.67
  GQ124                CONDUIT     0.331     0  05:00      1.19    0.14    0.61
  GQ125                CONDUIT     0.671     0  05:00      2.47    0.76    0.92
  GQ126                CONDUIT     0.830     0  05:00      3.24    0.79    0.85
  GQ127                CONDUIT     0.869     0  04:09      1.76    1.11    1.00
  GQ128                CONDUIT     2.812     0  05:00      2.82    0.61    0.82
  GQ129                CONDUIT     1.313     0  05:51      2.61    1.00    1.00
  GQ130                CONDUIT     1.073     0  04:30      3.79    1.00    1.00
  GQ131                CONDUIT     0.862     0  04:21      3.05    1.00    1.00
  
  
  ***************************
  Flow Classification Summary
  ***************************
  
  -------------------------------------------------------------------------------------
                      Adjusted    ---------- Fraction of Time in Flow Class ---------- 
                       /Actual         Up    Down  Sub   Sup   Up    Down  Norm  Inlet 
  Conduit               Length    Dry  Dry   Dry   Crit  Crit  Crit  Crit  Ltd   Ctrl  
  -------------------------------------------------------------------------------------
  GQ1                     1.00   0.04  0.00  0.00  0.31  0.66  0.00  0.00  0.00  0.00
  GQ2                     1.00   0.04  0.00  0.00  0.06  0.90  0.00  0.00  0.82  0.00
  GQ3                     1.00   0.04  0.00  0.00  0.00  0.96  0.00  0.00  0.13  0.00
  GQ4                     1.00   0.04  0.00  0.00  0.96  0.00  0.00  0.00  0.29  0.00
  GQ5                     1.00   0.04  0.00  0.00  0.96  0.00  0.00  0.00  0.48  0.00
  GQ6                     1.00   0.04  0.00  0.00  0.96  0.00  0.00  0.00  0.85  0.00
  GQ7                     1.00   0.04  0.00  0.00  0.70  0.26  0.00  0.00  0.09  0.00
  GQ8                     1.00   0.04  0.00  0.00  0.96  0.00  0.00  0.00  0.68  0.00
  GQ9                     1.00   0.04  0.00  0.00  0.44  0.52  0.00  0.00  0.72  0.00
  GQ10                    1.00   0.04  0.00  0.00  0.90  0.06  0.00  0.00  0.34  0.00
  GQ11                    1.00   0.04  0.00  0.00  0.00  0.96  0.00  0.00  0.86  0.00
  GQ12                    1.00   0.04  0.00  0.00  0.96  0.01  0.00  0.00  0.86  0.00
  GQ13                    1.00   0.04  0.00  0.00  0.96  0.00  0.00  0.00  0.86  0.00
  GQ14                    1.00   0.04  0.00  0.00  0.76  0.20  0.00  0.00  0.00  0.00
  GQ15                    1.00   0.04  0.00  0.00  0.00  0.96  0.00  0.00  0.02  0.00
  GQ16                    1.00   0.04  0.00  0.00  0.01  0.96  0.00  0.00  0.00  0.00
  GQ17                    1.00   0.04  0.00  0.00  0.37  0.59  0.00  0.00  0.86  0.00
  GQ18                    1.00   0.04  0.00  0.00  0.75  0.21  0.00  0.00  0.12  0.00
  GQ19                    1.00   0.04  0.00  0.00  0.17  0.79  0.00  0.00  0.86  0.00
  GQ20                    1.00   0.04  0.00  0.00  0.96  0.00  0.00  0.00  0.86  0.00
  GQ21                    1.00   0.04  0.00  0.00  0.74  0.23  0.00  0.00  0.86  0.00
  GQ22                    1.00   0.04  0.00  0.00  0.28  0.69  0.00  0.00  0.86  0.00
  GQ23                    1.00   0.04  0.00  0.00  0.32  0.64  0.00  0.00  0.18  0.00
  GQ24                    1.00   0.04  0.00  0.00  0.77  0.19  0.00  0.00  0.57  0.00
  GQ25                    1.00   0.04  0.00  0.00  0.00  0.96  0.00  0.00  0.02  0.00
  GQ26                    1.00   0.04  0.00  0.00  0.01  0.95  0.00  0.00  0.66  0.00
  GQ27                    1.00   0.04  0.00  0.00  0.64  0.33  0.00  0.00  0.52  0.00
  GQ28                    1.00   0.04  0.00  0.00  0.96  0.00  0.00  0.00  0.56  0.00
  GQ29                    1.00   0.04  0.00  0.00  0.96  0.00  0.00  0.00  0.27  0.00
  GQ30                    1.00   0.04  0.00  0.00  0.94  0.02  0.00  0.00  0.24  0.00
  GQ31                    1.00   0.04  0.00  0.00  0.96  0.00  0.00  0.00  0.56  0.00
  GQ32                    1.00   0.04  0.00  0.00  0.27  0.69  0.00  0.00  0.01  0.00
  GQ33                    1.00   0.04  0.00  0.00  0.72  0.25  0.00  0.00  0.43  0.00
  GQ34                    1.00   0.04  0.00  0.00  0.96  0.00  0.00  0.00  0.68  0.00
  GQ35                    1.00   0.04  0.00  0.00  0.61  0.36  0.00  0.00  0.12  0.00
  GQ36                    1.00   0.04  0.00  0.00  0.54  0.42  0.00  0.00  0.47  0.00
  GQ37                    1.00   0.04  0.00  0.00  0.96  0.00  0.00  0.00  0.53  0.00
  GQ38                    1.00   0.04  0.00  0.00  0.96  0.00  0.00  0.00  0.56  0.00
  GQ39                    1.00   0.04  0.00  0.00  0.94  0.02  0.00  0.00  0.53  0.00
  GQ40                    1.00   0.04  0.00  0.00  0.51  0.46  0.00  0.00  0.59  0.00
  GQ41                    1.00   0.04  0.00  0.00  0.96  0.00  0.00  0.00  0.43  0.00
  GQ42                    1.00   0.04  0.00  0.00  0.96  0.00  0.00  0.00  0.37  0.00
  GQ43                    1.00   0.04  0.00  0.00  0.59  0.37  0.00  0.00  0.50  0.00
  GQ44                    1.00   0.04  0.00  0.00  0.96  0.00  0.00  0.00  0.32  0.00
  GQ45                    1.00   0.04  0.00  0.00  0.57  0.40  0.00  0.00  0.72  0.00
  GQ46                    1.00   0.04  0.00  0.00  0.82  0.14  0.00  0.00  0.18  0.00
  GQ47                    1.00   0.04  0.00  0.00  0.96  0.00  0.00  0.00  0.86  0.00
  GQ48                    1.00   0.04  0.00  0.00  0.96  0.00  0.00  0.00  0.86  0.00
  GQ49                    1.00   0.04  0.00  0.00  0.34  0.62  0.00  0.00  0.86  0.00
  GQ50                    1.00   0.04  0.00  0.00  0.96  0.00  0.00  0.00  0.86  0.00
  GQ51                    1.00   0.04  0.00  0.00  0.33  0.63  0.00  0.00  0.24  0.00
  GQ52                    1.00   0.04  0.00  0.00  0.96  0.00  0.00  0.00  0.46  0.00
  GQ53                    1.00   0.04  0.00  0.00  0.96  0.00  0.00  0.00  0.37  0.00
  GQ54                    1.00   0.04  0.00  0.00  0.66  0.31  0.00  0.00  0.86  0.00
  GQ55                    1.00   0.04  0.00  0.00  0.70  0.26  0.00  0.00  0.86  0.00
  GQ56                    1.00   0.04  0.00  0.00  0.69  0.27  0.00  0.00  0.14  0.00
  GQ57                    1.00   0.04  0.00  0.00  0.96  0.00  0.00  0.00  0.80  0.00
  GQ58                    1.00   0.04  0.00  0.00  0.41  0.55  0.00  0.00  0.86  0.00
  GQ59                    1.00   0.04  0.00  0.00  0.96  0.00  0.00  0.00  0.39  0.00
  GQ60                    1.00   0.04  0.00  0.00  0.96  0.00  0.00  0.00  0.34  0.00
  GQ61                    1.00   0.04  0.00  0.00  0.96  0.00  0.00  0.00  0.86  0.00
  GQ62                    1.00   0.04  0.00  0.00  0.96  0.00  0.00  0.00  0.86  0.00
  GQ63                    1.00   0.04  0.00  0.00  0.94  0.02  0.00  0.00  0.86  0.00
  GQ64                    1.00   0.04  0.00  0.00  0.00  0.96  0.00  0.00  0.86  0.00
  GQ65                    1.00   0.04  0.00  0.00  0.96  0.00  0.00  0.00  0.86  0.00
  GQ66                    1.00   0.04  0.00  0.00  0.95  0.01  0.00  0.00  0.86  0.00
  GQ67                    1.00   0.04  0.00  0.00  0.96  0.00  0.00  0.00  0.21  0.00
  GQ68                    1.00   0.04  0.00  0.00  0.96  0.00  0.00  0.00  0.80  0.00
  GQ69                    1.00   0.04  0.00  0.00  0.40  0.57  0.00  0.00  0.86  0.00
  GQ70                    1.00   0.04  0.00  0.00  0.00  0.96  0.00  0.00  0.04  0.00
  GQ71                    1.00   0.04  0.00  0.00  0.00  0.96  0.00  0.00  0.12  0.00
  GQ72                    1.00   0.04  0.00  0.00  0.00  0.96  0.00  0.00  0.25  0.00
  GQ73                    1.00   0.04  0.00  0.00  0.00  0.96  0.00  0.00  0.07  0.00
  GQ74                    1.00   0.04  0.00  0.00  0.86  0.10  0.00  0.00  0.86  0.00
  GQ75                    1.00   0.04  0.00  0.00  0.96  0.00  0.00  0.00  0.86  0.00
  GQ76                    1.00   0.04  0.00  0.00  0.00  0.96  0.00  0.00  0.24  0.00
  GQ77                    1.00   0.04  0.96  0.00  0.00  0.00  0.00  0.00  0.00  0.00
  GQ78                    1.00   0.04  0.00  0.00  0.86  0.10  0.00  0.00  0.43  0.00
  GQ79                    1.00   0.04  0.00  0.00  0.96  0.00  0.00  0.00  0.22  0.00
  GQ80                    1.00   0.04  0.00  0.00  0.96  0.00  0.00  0.00  0.33  0.00
  GQ81                    1.00   0.04  0.00  0.00  0.96  0.00  0.00  0.00  0.00  0.00
  GQ82                    1.00   0.04  0.00  0.00  0.42  0.55  0.00  0.00  0.86  0.00
  GQ83                    1.00   0.04  0.00  0.00  0.00  0.96  0.00  0.00  0.86  0.00
  GQ84                    1.00   0.04  0.00  0.00  0.32  0.64  0.00  0.00  0.67  0.00
  GQ85                    1.00   0.04  0.00  0.00  0.96  0.00  0.00  0.00  0.31  0.00
  GQ86                    1.00   0.04  0.00  0.00  0.96  0.01  0.00  0.00  0.86  0.00
  GQ87                    1.00   0.04  0.00  0.00  0.96  0.00  0.00  0.00  0.86  0.00
  GQ88                    1.00   0.04  0.00  0.00  0.68  0.29  0.00  0.00  0.86  0.00
  GQ89                    1.00   0.04  0.00  0.00  0.96  0.00  0.00  0.00  0.73  0.00
  GQ90                    1.00   0.04  0.00  0.00  0.71  0.25  0.00  0.00  0.86  0.00
  GQ91                    1.00   0.04  0.00  0.00  0.95  0.01  0.00  0.00  0.72  0.00
  GQ92                    1.00   0.04  0.00  0.00  0.88  0.09  0.00  0.00  0.02  0.00
  GQ93                    1.00   0.04  0.00  0.00  0.96  0.00  0.00  0.00  0.55  0.00
  GQ94                    1.00   0.04  0.00  0.00  0.77  0.19  0.00  0.00  0.02  0.00
  GQ95                    1.00   0.04  0.00  0.00  0.96  0.00  0.00  0.00  0.86  0.00
  GQ96                    1.00   0.04  0.00  0.00  0.96  0.00  0.00  0.00  0.08  0.00
  GQ97                    1.00   0.04  0.00  0.00  0.18  0.79  0.00  0.00  0.23  0.00
  GQ98                    1.00   0.04  0.00  0.00  0.96  0.00  0.00  0.00  0.43  0.00
  GQ99                    1.00   0.04  0.00  0.00  0.95  0.01  0.00  0.00  0.86  0.00
  GQ100                   1.00   0.04  0.00  0.00  0.01  0.96  0.00  0.00  0.00  0.00
  GQ101                   1.00   0.04  0.00  0.00  0.71  0.25  0.00  0.00  0.86  0.00
  GQ102                   1.00   0.04  0.00  0.00  0.41  0.55  0.00  0.00  0.86  0.00
  GQ103                   1.00   0.04  0.00  0.00  0.96  0.00  0.00  0.00  0.56  0.00
  GQ104                   1.00   0.04  0.00  0.00  0.47  0.49  0.00  0.00  0.71  0.00
  GQ105                   1.00   0.04  0.00  0.00  0.96  0.00  0.00  0.00  0.19  0.00
  GQ106                   1.00   0.04  0.00  0.00  0.73  0.24  0.00  0.00  0.86  0.00
  GQ107                   1.00   0.04  0.00  0.00  0.68  0.29  0.00  0.00  0.55  0.00
  GQ108                   1.00   0.04  0.00  0.00  0.96  0.00  0.00  0.00  0.29  0.00
  GQ109                   1.00   0.04  0.00  0.00  0.89  0.08  0.00  0.00  0.71  0.00
  GQ110                   1.00   0.04  0.00  0.00  0.95  0.01  0.00  0.00  0.86  0.00
  GQ111                   1.00   0.04  0.00  0.00  0.71  0.25  0.00  0.00  0.70  0.00
  GQ112                   1.00   0.04  0.00  0.00  0.00  0.96  0.00  0.00  0.83  0.00
  GQ113                   1.00   0.04  0.00  0.00  0.00  0.96  0.00  0.00  0.82  0.00
  GQ114                   1.00   0.04  0.00  0.00  0.96  0.00  0.00  0.00  0.25  0.00
  GQ115                   1.00   0.04  0.00  0.00  0.94  0.02  0.00  0.00  0.86  0.00
  GQ116                   1.00   0.04  0.00  0.00  0.96  0.00  0.00  0.00  0.86  0.00
  GQ117                   1.00   0.04  0.00  0.00  0.00  0.96  0.00  0.00  0.00  0.00
  GQ118                   1.00   0.04  0.00  0.00  0.30  0.66  0.00  0.00  0.86  0.00
  GQ119                   1.00   0.04  0.00  0.00  0.79  0.17  0.00  0.00  0.43  0.00
  GQ120                   1.00   0.04  0.12  0.00  0.85  0.00  0.00  0.00  0.00  0.00
  GQ121                   1.00   0.04  0.00  0.00  0.96  0.01  0.00  0.00  0.23  0.00
  GQ122                   1.00   0.04  0.00  0.00  0.64  0.32  0.00  0.00  0.86  0.00
  GQ123                   1.00   0.04  0.00  0.00  0.60  0.37  0.00  0.00  0.86  0.00
  GQ124                   1.00   0.04  0.00  0.00  0.96  0.00  0.00  0.00  0.86  0.00
  GQ125                   1.00   0.04  0.00  0.00  0.95  0.01  0.00  0.00  0.69  0.00
  GQ126                   1.00   0.04  0.00  0.00  0.53  0.43  0.00  0.00  0.75  0.00
  GQ127                   1.00   0.04  0.00  0.00  0.96  0.00  0.00  0.00  0.42  0.00
  GQ128                   1.00   0.04  0.00  0.00  0.62  0.34  0.00  0.00  0.60  0.00
  GQ129                   1.00   0.04  0.00  0.00  0.96  0.00  0.00  0.00  0.33  0.00
  GQ130                   1.00   0.04  0.00  0.00  0.92  0.05  0.00  0.00  0.33  0.00
  GQ131                   1.00   0.04  0.00  0.00  0.89  0.07  0.00  0.00  0.51  0.00
  
  
  *************************
  Conduit Surcharge Summary
  *************************
  
  ----------------------------------------------------------------------------
                                                           Hours        Hours 
                         --------- Hours Full --------   Above Full   Capacity
  Conduit                Both Ends  Upstream  Dnstream   Normal Flow   Limited
  ----------------------------------------------------------------------------
  GQ1                         0.01      0.89      0.01      0.01         0.01
  GQ4                         3.31      3.31      4.19      0.01         0.01
  GQ5                         2.04      2.04      4.01      0.01         0.01
  GQ6                         0.01      0.01      2.04      0.01         0.01
  GQ7                         2.92      2.92      3.28      0.01         0.01
  GQ8                         0.65      0.65      2.92      0.01         0.01
  GQ9                         0.65      0.65      4.56      0.01         0.01
  GQ10                        3.55      3.55      4.67      0.05         0.01
  GQ12                        0.01      0.01      3.73      0.01         0.01
  GQ13                        0.01      0.01      3.22      0.01         0.01
  GQ16                        0.01      0.94      0.01      0.01         0.01
  GQ18                        0.01      0.01      3.76      3.81         0.01
  GQ20                        0.01      0.01      1.89      0.01         0.01
  GQ21                        0.01      0.01      1.89      0.01         0.01
  GQ22                        0.01      0.01      0.75      0.01         0.01
  GQ23                        0.75      0.75      1.00      0.01         0.01
  GQ24                        1.10      1.10      4.40      0.01         0.01
  GQ25                        0.01      1.01      0.01      0.99         0.01
  GQ26                        0.01      0.01      1.20      0.01         0.01
  GQ27                        1.20      1.20      3.77      0.01         0.01
  GQ28                        0.01      0.01      4.08      0.01         0.01
  GQ29                        3.68      3.68      4.08      0.01         0.01
  GQ30                        3.77      3.77      4.24      0.01         0.01
  GQ31                        1.01      1.01      4.73      0.01         0.01
  GQ32                        0.81      2.24      0.81      1.70         0.42
  GQ33                        2.24      2.24      4.73      0.01         0.01
  GQ34                        0.01      0.01      2.24      0.01         0.01
  GQ35                        2.11      2.14      2.24      0.11         0.01
  GQ36                        2.11      2.14      2.11      2.21         2.10
  GQ37                        0.81      0.81      4.50      0.01         0.01
  GQ38                        0.01      0.01      4.50      0.01         0.01
  GQ39                        1.93      1.93      3.73      0.01         0.01
  GQ40                        0.81      0.81      1.93      0.01         0.01
  GQ41                        0.94      0.94      4.02      0.01         0.01
  GQ42                        2.92      2.92      4.16      0.01         0.01
  GQ43                        2.36      2.36      2.92      0.06         0.01
  GQ44                        3.57      3.57      3.76      0.01         0.01
  GQ45                        0.01      0.01      3.26      0.01         0.01
  GQ46                        3.26      3.26      3.57      0.01         0.01
  GQ47                        0.01      0.01      4.14      0.01         0.01
  GQ48                        0.01      0.01      4.30      0.01         0.01
  GQ49                        0.01      0.01      4.30      0.01         0.01
  GQ50                        0.01      0.01      1.90      0.01         0.01
  GQ51                        0.89      1.90      0.89      1.99         0.89
  GQ52                        0.88      0.88      3.68      0.69         0.68
  GQ53                        2.89      2.89      4.25      0.01         0.01
  GQ54                        0.01      0.01      4.32      0.01         0.01
  GQ55                        0.01      0.01      4.32      0.01         0.01
  GQ56                        2.91      2.91      2.92      0.75         0.69
  GQ57                        0.01      0.01      2.91      0.01         0.01
  GQ58                        0.01      0.01      3.86      0.01         0.01
  GQ59                        2.92      2.92      3.86      0.01         0.01
  GQ60                        2.05      2.05      3.21      0.01         0.01
  GQ61                        0.01      0.01      3.37      0.01         0.01
  GQ62                        0.01      0.01      3.45      0.01         0.01
  GQ63                        0.01      0.01      3.51      0.01         0.01
  GQ66                        0.01      0.01      3.53      0.01         0.01
  GQ67                        3.39      3.39      3.45      0.01         0.01
  GQ68                        0.01      0.01      3.68      0.01         0.01
  GQ69                        0.01      0.01      4.05      0.01         0.01
  GQ75                        0.01      0.01      3.68      0.01         0.01
  GQ78                        2.33      2.33      4.43      0.01         0.01
  GQ79                        0.01      0.01      4.43      0.01         0.01
  GQ80                        2.33      2.33      3.77      0.01         0.01
  GQ81                        3.73      3.77      3.73      3.82         0.05
  GQ82                        0.01      0.01      3.73      0.01         0.01
  GQ83                        0.01      0.01      1.02      0.01         0.01
  GQ84                        1.20      1.20      2.96      0.07         0.01
  GQ85                        1.20      1.20      4.75      0.01         0.01
  GQ86                        0.01      0.01      4.11      0.01         0.01
  GQ87                        0.01      0.01      4.11      0.01         0.01
  GQ88                        0.01      0.01      4.22      0.01         0.01
  GQ89                        0.01      0.01      3.76      0.01         0.01
  GQ90                        0.01      0.01      3.63      0.01         0.01
  GQ91                        0.01      0.01      3.87      0.01         0.01
  GQ92                        1.82      1.86      1.93      1.06         0.98
  GQ93                        1.93      1.93      2.27      0.01         0.01
  GQ94                        2.27      2.27      2.36      2.21         2.16
  GQ95                        0.01      0.01      4.28      0.01         0.01
  GQ96                        1.83      1.86      1.86      1.21         1.09
  GQ97                        0.01      0.01      0.01      0.62         0.01
  GQ98                        0.01      0.01      4.04      0.01         0.01
  GQ99                        0.01      0.01      3.48      0.01         0.01
  GQ100                       0.01      0.91      0.01      0.83         0.01
  GQ101                       0.01      0.01      3.86      0.01         0.01
  GQ102                       0.01      0.01      4.05      0.01         0.01
  GQ103                       0.97      0.97      4.31      0.01         0.01
  GQ104                       0.81      0.81      4.31      0.05         0.01
  GQ105                       3.97      3.97      4.05      3.54         0.01
  GQ106                       0.01      0.01      4.08      0.01         0.01
  GQ107                       1.93      1.93      4.08      0.01         0.01
  GQ108                       3.68      3.68      3.97      0.01         0.01
  GQ109                       0.01      0.01      1.93      0.01         0.01
  GQ110                       0.01      0.01      3.68      0.01         0.01
  GQ111                       0.01      0.01      3.87      0.01         0.01
  GQ114                       0.01      0.01      4.25      0.01         0.01
  GQ116                       0.01      0.01      4.06      0.01         0.01
  GQ119                       2.49      2.49      4.39      0.01         0.01
  GQ120                       0.01      0.01      4.27      0.01         0.01
  GQ121                       4.02      4.02      4.39      0.01         0.01
  GQ122                       0.01      0.01      4.02      0.01         0.01
  GQ123                       0.01      0.01      4.07      0.01         0.01
  GQ125                       0.01      0.01      3.87      0.01         0.01
  GQ126                       0.01      0.01      3.86      0.01         0.01
  GQ127                       2.36      2.36      2.49      0.16         0.13
  GQ128                       0.01      0.01      2.18      0.01         0.01
  GQ129                       3.28      3.28      4.40      0.01         0.01
  GQ130                       3.36      3.36      5.04      0.01         0.01
  GQ131                       1.90      1.90      4.76      0.01         0.01
  

  Analysis begun on:  Sat Mar 25 16:17:07 2023
  Analysis ended on:  Sat Mar 25 16:17:09 2023
  Total elapsed time: 00:00:02