
  OWA STORM WATER MANAGEMENT MODEL - VERSION v5.1.14 (OWA 2022-07-31)
  --------------------------------------------------------------

  INP file created by DSDAConvertToSwmmTools 
  version 0.0.1 EcoVista 
  Title/Notes: 
  
  
  *********************************************************
  NOTE: The summary statistics displayed in this report are
  based on results found at every computational time step,  
  not just on results from each reporting time step.
  *********************************************************
  
  ****************
  Analysis Options
  ****************
  Flow Units ............... CMS
  Process Models:
    Rainfall/Runoff ........ YES
    RDII ................... NO
    Snowmelt ............... NO
    Groundwater ............ NO
    Flow Routing ........... YES
    Ponding Allowed ........ NO
    Water Quality .......... NO
  Infiltration Method ...... GREEN_AMPT
  Flow Routing Method ...... DYNWAVE
  Surcharge Method ......... EXTRAN
  Starting Date ............ 07/15/2020 00:00:00
  Ending Date .............. 07/15/2020 17:00:00
  Antecedent Dry Days ...... 0.0
  Report Time Step ......... 00:30:00
  Wet Time Step ............ 00:05:00
  Dry Time Step ............ 01:00:00
  Routing Time Step ........ 30.00 sec
  Variable Time Step ....... YES
  Maximum Trials ........... 8
  Number of Threads ........ 1
  Head Tolerance ........... 0.001500 m
  
  
  **************************        Volume         Depth
  Runoff Quantity Continuity     hectare-m            mm
  **************************     ---------       -------
  Total Precipitation ......       692.194       173.200
  Evaporation Loss .........         6.308         1.578
  Infiltration Loss ........       184.707        46.217
  Surface Runoff ...........       493.625       123.514
  Final Storage ............         8.015         2.005
  Continuity Error (%) .....        -0.067
  
  
  **************************        Volume        Volume
  Flow Routing Continuity        hectare-m      10^6 ltr
  **************************     ---------     ---------
  Dry Weather Inflow .......         0.000         0.000
  Wet Weather Inflow .......       493.465      4934.697
  Groundwater Inflow .......         0.000         0.000
  RDII Inflow ..............         0.000         0.000
  External Inflow ..........         0.000         0.000
  External Outflow .........        37.256       372.565
  Flooding Loss ............       454.699      4547.039
  Evaporation Loss .........         0.000         0.000
  Exfiltration Loss ........         0.000         0.000
  Initial Stored Volume ....         0.000         0.000
  Final Stored Volume ......         1.390        13.898
  Continuity Error (%) .....         0.024
  
  
  *************************
  Highest Continuity Errors
  *************************
  Node jd51 (1.15%)
  
  
  ***************************
  Time-Step Critical Elements
  ***************************
  Link GQ73 (98.70%)
  
  
  ********************************
  Highest Flow Instability Indexes
  ********************************
  Link GQ67 (12)
  Link GQ96 (7)
  Link GQ92 (6)
  Link GQ29 (5)
  Link GQ114 (5)
  
  
  *************************
  Routing Time Step Summary
  *************************
  Minimum Time Step           :     0.58 sec
  Average Time Step           :     5.80 sec
  Maximum Time Step           :    30.00 sec
  Percent in Steady State     :    -0.00
  Average Iterations per Step :     3.86
  Percent Not Converging      :    12.62
  
  
  ***************************
  Subcatchment Runoff Summary
  ***************************
  
  ------------------------------------------------------------------------------------------------------------------------------
                            Total      Total      Total      Total     Imperv       Perv      Total       Total     Peak  Runoff
                           Precip      Runon       Evap      Infil     Runoff     Runoff     Runoff      Runoff   Runoff   Coeff
  Subcatchment                 mm         mm         mm         mm         mm         mm         mm    10^6 ltr      CMS
  ------------------------------------------------------------------------------------------------------------------------------
  1                        173.20       0.00       1.05      96.89      74.26       0.00      74.26       29.39     1.55   0.429
  2                        173.20       0.00       1.68      36.81     132.52       0.00     132.52      119.83     6.32   0.765
  3                        173.20       0.00       1.73      31.55     137.84       0.00     137.84       55.15     2.91   0.796
  4                        173.20       0.00       1.78      27.11     142.34       0.00     142.34       11.95     0.63   0.822
  5                        173.20       0.00       1.60      44.05     125.80       0.00     125.80       15.56     0.82   0.726
  6                        173.20       0.00       1.54      49.56     120.48       0.00     120.48       11.19     0.59   0.696
  7                        173.20       0.00       1.60      44.25     125.37       0.00     125.37       54.66     2.88   0.724
  8                        173.20       0.00       1.96       9.68     159.12       0.00     159.12       22.16     1.17   0.919
  9                        173.20       0.00       2.01       4.83     163.90       0.00     163.90       19.18     1.01   0.946
  10                       173.20       0.00       1.77      28.13     141.20       0.00     141.20       31.81     1.68   0.815
  11                       173.20       0.00       1.89      16.53     152.41       0.00     152.41       75.56     3.98   0.880
  12                       173.20       0.00       1.54      49.72     120.15       0.00     120.15       58.62     3.09   0.694
  13                       173.20       0.00       1.86      18.65     150.37       0.00     150.37       68.01     3.58   0.868
  14                       173.20       0.00       1.86      18.86     150.27       0.00     150.27       28.36     1.49   0.868
  15                       173.20       0.00       1.74      30.41     138.95       0.00     138.95       46.97     2.47   0.802
  16                       173.20       0.00       1.80      25.12     144.06       0.00     144.06       42.56     2.24   0.832
  17                       173.20       0.00       1.70      34.52     134.94       0.00     134.94       56.47     2.97   0.779
  18                       173.20       0.00       1.92      13.61     155.25       0.00     155.25       64.10     3.38   0.896
  19                       173.20       0.00       1.91      14.23     154.62       0.00     154.62       34.76     1.83   0.893
  20                       173.20       0.00       1.90      15.18     153.56       0.00     153.56       82.41     4.34   0.887
  21                       173.20       0.00       2.00       5.09     163.53       0.00     163.53       51.31     2.70   0.944
  22                       173.20       0.00       1.97       8.16     160.50       0.00     160.50       19.74     1.04   0.927
  23                       173.20       0.00       1.84      21.15     147.85       0.00     147.85       84.64     4.46   0.854
  24                       173.20       0.00       1.78      26.40     142.72       0.00     142.72       25.31     1.33   0.824
  25                       173.20       0.00       1.89      16.23     152.79       0.00     152.79       30.94     1.63   0.882
  26                       173.20       0.00       1.65      39.45     129.98       0.00     129.98       45.62     2.40   0.750
  27                       173.20       0.00       1.92      12.95     155.74       0.00     155.74       65.82     3.47   0.899
  28                       173.20       0.00       1.96       9.54     159.13       0.00     159.13       75.23     3.97   0.919
  29                       173.20       0.00       1.78      26.84     142.50       0.00     142.50       33.27     1.75   0.823
  30                       173.20       0.00       2.00       5.84     163.06       0.00     163.06       11.69     0.62   0.941
  31                       173.20       0.00       2.02       3.63     164.99       0.00     164.99       36.36     1.92   0.953
  32                       173.20       0.00       1.98       7.70     160.99       0.00     160.99       69.56     3.67   0.930
  33                       173.20       0.00       2.00       5.63     162.98       0.00     162.98       57.42     3.03   0.941
  34                       173.20       0.00       1.87      17.51     151.47       0.00     151.47       44.40     2.34   0.875
  35                       173.20       0.00       1.92      13.04     155.80       0.00     155.80       64.62     3.41   0.900
  36                       173.20       0.00       1.63      41.20     128.49       0.00     128.49       50.56     2.66   0.742
  37                       173.20       0.00       1.96       9.33     159.40       0.00     159.41       35.38     1.86   0.920
  38                       173.20       0.00       1.85      19.58     149.48       0.00     149.48       57.01     3.00   0.863
  39                       173.20       0.00       1.70      34.39     135.10       0.00     135.10       57.05     3.00   0.780
  40                       173.20       0.00       1.86      18.70     150.32       0.00     150.32       34.37     1.81   0.868
  41                       173.20       0.00       1.90      15.22     153.79       0.00     153.79       30.33     1.60   0.888
  42                       173.20       0.00       1.90      15.37     153.41       0.00     153.42       37.89     2.00   0.886
  43                       173.20       0.00       1.64      40.44     129.10       0.00     129.10      102.05     5.38   0.745
  44                       173.20       0.00       1.73      31.53     137.74       0.00     137.75       66.58     3.51   0.795
  45                       173.20       0.00       1.64      40.11     129.45       0.00     129.45       93.67     4.93   0.747
  46                       173.20       0.00       1.59      44.70     125.13       0.00     125.13       62.55     3.29   0.722
  47                       173.20       0.00       1.66      38.24     131.27       0.00     131.27      153.04     8.06   0.758
  48                       173.20       0.00       1.93      11.97     156.67       0.00     156.67       90.92     4.79   0.905
  49                       173.20       0.00       1.79      25.62     143.41       0.00     143.41       97.09     5.12   0.828
  50                       173.20       0.00       1.96       9.74     158.73       0.00     158.73       62.39     3.29   0.916
  51                       173.20       0.00       1.88      16.80     151.90       0.00     151.90       28.42     1.50   0.877
  52                       173.20       0.00       1.05      97.02      74.19       0.00      74.19       76.14     4.00   0.428
  53                       173.20       0.00       1.41      62.98     107.34       0.00     107.34      114.32     6.01   0.620
  54                       173.20       0.00       1.67      37.24     132.30       0.00     132.30       32.26     1.70   0.764
  55                       173.20       0.00       1.07      95.24      75.91       0.00      75.91       59.90     3.15   0.438
  56                       173.20       0.00       0.57     143.65      28.73       0.00      28.73       23.41     1.23   0.166
  57                       173.20       0.00       1.86      19.26     149.60       0.00     149.60      124.29     6.55   0.864
  58                       173.20       0.00       1.74      30.55     138.81       0.00     138.81       22.85     1.20   0.801
  59                       173.20       0.00       1.71      33.95     135.66       0.00     135.66       17.27     0.91   0.783
  60                       173.20       0.00       0.81     120.85      50.97       0.00      50.97       14.60     0.77   0.294
  61                       173.20       0.00       1.11      91.93      79.04       0.00      79.04       29.79     1.57   0.456
  62                       173.20       0.00       1.43      60.17     109.91       0.00     109.91      128.81     6.78   0.635
  63                       173.20       0.00       1.86      19.06     149.71       0.00     149.71      289.53    15.26   0.864
  64                       173.20       0.00       1.46      58.15     112.01       0.00     112.01       24.05     1.27   0.647
  65                       173.20       0.00       1.88      16.87     151.86       0.00     151.86      102.13     5.38   0.877
  66                       173.20       0.00       1.54      50.02     119.75       0.00     119.75       30.51     1.61   0.691
  67                       173.20       0.00       1.46      58.06     112.15       0.00     112.15       36.25     1.91   0.647
  68                       173.20       0.00       1.69      35.13     134.40       0.00     134.40       14.94     0.79   0.776
  69                       173.20       0.00       1.10      92.05      79.12       0.00      79.12       25.32     1.33   0.457
  70                       173.20       0.00       1.45      59.11     110.99       0.00     110.99       91.31     4.81   0.641
  71                       173.20       0.00       1.72      32.32     137.12       0.00     137.12       16.82     0.89   0.792
  72                       173.20       0.00       1.80      24.68     144.56       0.00     144.56       18.01     0.95   0.835
  73                       173.20       0.00       1.66      38.62     131.08       0.00     131.08       21.78     1.15   0.757
  74                       173.20       0.00       1.59      44.91     124.92       0.00     124.92       26.89     1.42   0.721
  75                       173.20       0.00       1.74      30.63     138.78       0.00     138.79       20.00     1.05   0.801
  76                       173.20       0.00       1.82      23.22     146.03       0.01     146.04       14.14     0.74   0.843
  77                       173.20       0.00       1.92      13.30     155.60       0.01     155.61       16.84     0.89   0.898
  78                       173.20       0.00       1.86      18.93     150.10       0.00     150.11       16.50     0.87   0.867
  79                       173.20       0.00       0.97     105.38      66.04       0.00      66.04       70.03     3.68   0.381
  80                       173.20       0.00       1.58      45.63     124.04       0.00     124.04       77.65     4.09   0.716
  81                       173.20       0.00       1.61      43.63     125.98       0.00     125.98       54.91     2.89   0.727
  82                       173.20       0.00       1.55      49.11     120.66       0.00     120.66      110.62     5.83   0.697
  83                       173.20       0.00       1.87      18.14     150.94       0.00     150.95       18.45     0.97   0.872
  84                       173.20       0.00       1.78      26.85     142.39       0.00     142.39       17.00     0.90   0.822
  85                       173.20       0.00       2.04       1.30     167.37       0.01     167.38       15.56     0.82   0.966
  86                       173.20       0.00       1.91      14.59     154.35       0.01     154.36       22.74     1.20   0.891
  87                       173.20       0.00       2.02       3.69     164.87       0.01     164.88       21.68     1.14   0.952
  88                       173.20       0.00       1.83      21.56     147.62       0.00     147.62       14.14     0.74   0.852
  89                       173.20       0.00       1.91      13.90     155.06       0.01     155.07       29.87     1.57   0.895
  90                       173.20       0.00       2.06       0.03     168.72       0.00     168.72        1.94     0.10   0.974
  91                       173.20       0.00       1.76      28.98     140.15       0.00     140.15       30.56     1.61   0.809
  92                       173.20       0.00       1.92      13.44     155.47       0.01     155.48       19.43     1.02   0.898
  93                       173.20       0.00       1.61      42.96     126.72       0.00     126.72       64.85     3.42   0.732
  94                       173.20       0.00       1.48      56.02     114.24       0.00     114.24        8.00     0.42   0.660
  95                       173.20       0.00       2.05       0.19     168.45       0.00     168.45        3.68     0.19   0.973
  96                       173.20       0.00       1.71      33.49     136.02       0.00     136.02       16.62     0.88   0.785
  97                       173.20       0.00       2.02       3.65     165.01       0.01     165.02       16.39     0.86   0.953
  98                       173.20       0.00       1.72      32.67     136.84       0.00     136.84       16.87     0.89   0.790
  99                       173.20       0.00       0.99     103.47      67.94       0.00      67.94       25.22     1.32   0.392
  100                      173.20       0.00       1.07      95.70      75.53       0.00      75.53       19.38     1.02   0.436
  101                      173.20       0.00       1.09      93.81      77.32       0.00      77.33       37.88     1.99   0.446
  102                      173.20       0.00       1.60      43.98     125.76       0.00     125.76       30.66     1.61   0.726
  103                      173.20       0.00       0.71     129.83      42.26       0.00      42.26       15.37     0.81   0.244
  104                      173.20       0.00       0.57     143.78      28.57       0.00      28.57       27.68     1.45   0.165
  105                      173.20       0.00       1.74      30.71     138.75       0.00     138.75       18.15     0.96   0.801
  106                      173.20       0.00       1.07      95.90      75.30       0.00      75.30       18.37     0.97   0.435
  
  
  ******************
  Node Depth Summary
  ******************
  
  ---------------------------------------------------------------------------------
                                 Average  Maximum  Maximum  Time of Max    Reported
                                   Depth    Depth      HGL   Occurrence   Max Depth
  Node                 Type       Meters   Meters   Meters  days hr:min      Meters
  ---------------------------------------------------------------------------------
  jd1                  JUNCTION     0.19     0.31   273.31     0  04:00        0.31
  jd2                  JUNCTION     1.64     3.00   270.00     0  01:25        3.00
  jd3                  JUNCTION     2.95     3.00   266.00     0  01:16        3.00
  jd4                  JUNCTION     2.28     3.00   270.00     0  01:19        3.00
  jd5                  JUNCTION     0.13     0.22   274.22     0  04:00        0.22
  jd6                  JUNCTION     0.18     0.30   275.30     0  04:00        0.30
  jd7                  JUNCTION     0.49     0.77   264.87     0  04:00        0.77
  jd8                  JUNCTION     2.50     3.00   267.00     0  01:16        3.00
  jd9                  JUNCTION     2.35     3.00   268.00     0  01:17        3.00
  jd10                 JUNCTION     2.95     3.00   273.00     0  01:13        3.00
  jd11                 JUNCTION     0.16     0.27   282.27     0  04:00        0.27
  jd12                 JUNCTION     2.95     3.00   272.00     0  01:13        3.00
  jd13                 JUNCTION     0.21     0.38   289.38     0  04:00        0.38
  jd14                 JUNCTION     1.52     3.00   283.00     0  01:23        3.00
  jd15                 JUNCTION     0.72     3.00   281.00     0  03:22        2.16
  jd16                 JUNCTION     0.98     3.00   277.00     0  03:14        3.00
  jd17                 JUNCTION     2.71     3.00   278.80     0  01:18        3.00
  jd18                 JUNCTION     1.60     3.00   282.00     0  01:27        3.00
  jd19                 JUNCTION     2.19     3.00   270.00     0  01:18        3.00
  jd20                 JUNCTION     0.34     0.64   273.64     0  04:00        0.64
  jd21                 JUNCTION     2.95     3.00   273.00     0  01:16        3.00
  jd22                 JUNCTION     2.46     3.00   275.00     0  01:17        3.00
  jd23                 JUNCTION     1.36     3.00   281.00     0  01:32        3.00
  jd24                 JUNCTION     0.23     0.40   285.40     0  04:00        0.40
  jd25                 JUNCTION     1.27     3.00   282.00     0  01:37        3.00
  jd26                 JUNCTION     1.61     3.00   288.00     0  01:23        3.00
  jd27                 JUNCTION     1.27     3.00   294.00     0  01:36        3.00
  jd28                 JUNCTION     2.95     3.00   290.00     0  01:12        3.00
  jd29                 JUNCTION     0.16     0.27   299.27     0  04:00        0.27
  jd30                 JUNCTION     0.20     0.31   290.31     0  04:00        0.31
  jd31                 JUNCTION     1.70     3.00   275.00     0  01:21        2.91
  jd32                 JUNCTION     2.95     3.00   275.00     0  01:14        3.00
  jd33                 JUNCTION     0.33     0.60   289.60     0  04:00        0.60
  jd34                 JUNCTION     1.37     3.00   297.00     0  01:23        3.00
  jd35                 JUNCTION     2.96     3.00   292.00     0  01:10        3.00
  jd36                 JUNCTION     1.81     3.00   302.00     0  01:22        3.00
  jd37                 JUNCTION     1.71     3.00   306.00     0  01:20        3.00
  jd38                 JUNCTION     1.39     3.00   300.00     0  01:33        3.00
  jd39                 JUNCTION     2.95     3.00   297.00     0  01:16        3.00
  jd40                 JUNCTION     2.19     3.00   302.00     0  01:23        3.00
  jd41                 JUNCTION     2.93     3.00   296.00     0  01:22        3.00
  jd42                 JUNCTION     0.79     3.00   308.00     0  03:21        3.00
  jd43                 JUNCTION     2.14     3.00   300.00     0  01:17        3.00
  jd44                 JUNCTION     2.16     3.00   286.00     0  01:21        3.00
  jd45                 JUNCTION     2.95     3.00   282.00     0  01:16        3.00
  jd46                 JUNCTION     1.34     3.00   278.00     0  01:43        3.00
  jd47                 JUNCTION     0.25     0.42   315.42     0  04:00        0.42
  jd48                 JUNCTION     0.18     0.32   325.32     0  04:00        0.32
  jd49                 JUNCTION     1.30     3.00   292.00     0  01:45        3.00
  jd50                 JUNCTION     2.95     3.00   278.00     0  01:12        3.00
  jd51                 JUNCTION     2.93     3.00   313.00     0  01:22        3.00
  jd52                 JUNCTION     1.25     3.00   326.00     0  01:27        2.14
  jd53                 JUNCTION     1.76     3.00   325.00     0  01:25        3.00
  jd54                 JUNCTION     0.74     3.00   329.00     0  03:19        2.13
  jd55                 JUNCTION     2.24     3.00   325.00     0  01:20        3.00
  jd56                 JUNCTION     0.37     0.77   327.77     0  04:00        0.77
  jd59                 JUNCTION     2.93     3.00   320.80     0  01:23        3.00
  jd60                 JUNCTION     2.95     3.00   319.00     0  01:12        3.00
  jd61                 JUNCTION     0.49     3.00   332.00     0  03:28        2.80
  jd62                 JUNCTION     0.11     0.22   335.22     0  04:00        0.22
  jd63                 JUNCTION     0.11     0.19   324.19     0  04:00        0.19
  jd64                 JUNCTION     2.82     3.00   321.00     0  01:22        3.00
  jd65                 JUNCTION     2.65     3.00   307.00     0  01:13        3.00
  jd66                 JUNCTION     2.95     3.00   304.00     0  01:13        3.00
  jd69                 JUNCTION     0.98     3.00   336.00     0  03:10        3.00
  jd79                 JUNCTION     2.90     3.00   274.00     0  01:12        3.00
  jd80                 JUNCTION     2.74     3.00   279.00     0  01:12        3.00
  jd81                 JUNCTION     0.51     3.00   291.00     0  03:30        3.00
  jd83                 JUNCTION     2.96     3.00   323.00     0  01:08        3.00
  jd84                 JUNCTION     1.42     3.00   326.00     0  01:19        3.00
  jd85                 JUNCTION     2.95     3.00   324.00     0  01:12        3.00
  jd87                 JUNCTION     2.95     3.00   322.00     0  01:12        3.00
  jd89                 JUNCTION     0.87     3.00   327.00     0  03:11        3.00
  jd90                 JUNCTION     0.25     0.48   328.48     0  04:00        0.48
  jd92                 JUNCTION     0.63     3.00   329.00     0  03:09        2.32
  jd93                 JUNCTION     1.72     3.00   327.00     0  01:23        3.00
  jd94                 JUNCTION     1.21     3.00   329.20     0  01:27        2.40
  jd95                 JUNCTION     1.45     3.00   330.00     0  01:27        2.92
  jd96                 JUNCTION     2.96     3.00   308.00     0  01:10        3.00
  jd97                 JUNCTION     1.50     3.00   330.20     0  01:24        3.00
  jd98                 JUNCTION     0.88     3.00   332.00     0  03:07        3.00
  jd99                 JUNCTION     2.95     3.00   327.00     0  01:14        3.00
  jd101                JUNCTION     0.17     0.27   321.27     0  04:00        0.27
  jd102                JUNCTION     1.34     3.00   327.00     0  01:29        3.00
  jd103                JUNCTION     0.19     0.33   318.33     0  04:00        0.33
  jd106                JUNCTION     2.94     3.00   287.00     0  01:18        3.00
  jd107                JUNCTION     0.35     0.60   332.60     0  04:00        0.60
  jd108                JUNCTION     1.44     3.00   329.00     0  01:12        1.94
  jd109                JUNCTION     0.71     3.00   346.00     0  03:14        3.00
  jd110                JUNCTION     2.95     3.00   327.00     0  01:12        3.00
  jd111                JUNCTION     0.12     0.20   344.20     0  04:00        0.20
  jd112                JUNCTION     0.15     0.23   334.23     0  04:00        0.23
  jd113                JUNCTION     0.17     0.29   348.29     0  04:00        0.29
  jd114                JUNCTION     2.95     3.00   317.00     0  01:15        3.00
  jd117                JUNCTION     2.02     3.00   319.00     0  01:17        3.00
  jd118                JUNCTION     0.15     0.26   330.26     0  04:00        0.26
  jd120                JUNCTION     0.92     3.00   330.00     0  03:07        3.00
  jd121                JUNCTION     0.91     3.00   323.00     0  03:12        3.00
  jd122                JUNCTION     2.95     3.00   276.00     0  01:15        3.00
  jd123                JUNCTION     2.94     3.00   276.20     0  01:17        3.00
  jd124                JUNCTION     2.96     3.00   271.00     0  01:08        3.00
  jd125                JUNCTION     2.25     3.00   278.00     0  01:19        3.00
  jd126                JUNCTION     2.96     3.00   275.00     0  01:10        3.00
  jd135                JUNCTION     0.50     3.00   292.00     0  03:12        1.90
  jd136                JUNCTION     1.07     3.00   344.00     0  03:07        3.00
  psk1                 OUTFALL      0.15     0.23   279.23     0  04:00        0.23
  psk2                 OUTFALL      0.20     0.30   270.30     0  04:00        0.30
  psk3                 OUTFALL      0.57     1.00   272.00     0  03:10        1.00
  psk4                 OUTFALL      0.02     0.18   280.18     0  03:22        0.14
  psk5                 OUTFALL      0.19     0.31   263.31     0  04:00        0.31
  psk6                 OUTFALL      0.13     0.22   259.22     0  04:00        0.22
  psk7                 OUTFALL      0.49     0.77   262.77     0  04:00        0.77
  psk8                 OUTFALL      0.00     0.00   317.00     0  00:00        0.00
  
  
  *******************
  Node Inflow Summary
  *******************
  
  -------------------------------------------------------------------------------------------------
                                  Maximum  Maximum                  Lateral       Total        Flow
                                  Lateral    Total  Time of Max      Inflow      Inflow     Balance
                                   Inflow   Inflow   Occurrence      Volume      Volume       Error
  Node                 Type           CMS      CMS  days hr:min    10^6 ltr    10^6 ltr     Percent
  -------------------------------------------------------------------------------------------------
  jd1                  JUNCTION     1.546    1.950     0  04:00        29.4        40.8       0.038
  jd2                  JUNCTION     2.404    3.088     0  04:00        45.6        59.9       0.052
  jd3                  JUNCTION     2.880    4.599     0  04:00        54.6         115       0.342
  jd4                  JUNCTION     3.470    3.808     0  04:00        65.8        72.8       0.063
  jd5                  JUNCTION     1.010    1.451     0  04:00        19.2        29.9       0.017
  jd6                  JUNCTION     1.167    1.167     0  04:00        22.1        22.1       0.021
  jd7                  JUNCTION     0.589    3.951     0  04:00        11.2        99.5       0.062
  jd8                  JUNCTION     0.819    1.764     0  04:00        15.6        55.6       0.389
  jd9                  JUNCTION     0.629    1.696     0  04:00        11.9        54.7       0.091
  jd10                 JUNCTION     1.675    2.105     0  04:00        31.8        40.1       0.252
  jd11                 JUNCTION     2.474    2.474     0  04:00          47          47       0.017
  jd12                 JUNCTION     1.864    4.219     0  04:00        35.4        78.7       0.174
  jd13                 JUNCTION     3.378    3.378     0  04:00        64.1        64.1       0.018
  jd14                 JUNCTION     3.966    4.509     0  04:00        75.2        85.2       0.043
  jd15                 JUNCTION     1.630    2.522     0  03:22        30.9          57       0.105
  jd16                 JUNCTION     1.752    6.042     0  04:00        33.3         124       0.037
  jd17                 JUNCTION     3.666    6.723     0  04:00        69.5         144       0.432
  jd18                 JUNCTION     2.905    4.287     0  04:00        55.1        80.8       0.070
  jd19                 JUNCTION     2.697    4.673     0  04:00        51.2          93       0.058
  jd20                 JUNCTION     2.242    2.440     0  04:00        42.5        53.9       0.105
  jd21                 JUNCTION     1.040    4.424     0  04:00        19.7         111       0.303
  jd22                 JUNCTION     1.832    2.829     0  04:00        34.8        63.2       0.126
  jd23                 JUNCTION     1.811    4.607     0  04:00        34.4        95.9      -0.002
  jd24                 JUNCTION     2.975    2.975     0  04:00        56.4        56.4       0.020
  jd25                 JUNCTION     2.340    3.445     0  04:00        44.4        64.9       0.039
  jd26                 JUNCTION     3.406    4.838     0  04:00        64.6        98.6       0.046
  jd27                 JUNCTION     3.509    4.132     0  04:00        66.6        89.8       0.044
  jd28                 JUNCTION     4.794    5.717     0  04:00        90.9         116       0.114
  jd29                 JUNCTION     1.916    1.916     0  04:00        36.4        36.4       0.004
  jd30                 JUNCTION     1.998    4.024     0  04:00        37.9        93.1       0.026
  jd31                 JUNCTION     1.334    2.096     0  04:00        25.3        47.3       0.954
  jd32                 JUNCTION     2.704    6.037     0  04:00        51.3         153       0.163
  jd33                 JUNCTION     2.662    3.748     0  04:00        50.5        78.3       0.031
  jd34                 JUNCTION     3.292    3.292     0  04:00        62.5        62.5       0.015
  jd35                 JUNCTION     3.005    5.186     0  04:00          57         131       0.099
  jd36                 JUNCTION     5.118    6.295     0  04:00        97.1         132       0.043
  jd37                 JUNCTION     5.376    5.376     0  04:00         102         102       0.040
  jd38                 JUNCTION     4.935    5.742     0  04:00        93.6         124       0.069
  jd39                 JUNCTION     3.416    6.935     0  04:00        64.8         176       0.284
  jd40                 JUNCTION     5.828    8.024     0  04:00         111         190       0.073
  jd41                 JUNCTION     4.092   11.843     0  04:00        77.6         253       0.826
  jd42                 JUNCTION     5.384    5.899     0  04:00         102         112       0.046
  jd43                 JUNCTION     6.015    8.807     0  04:00         114         182       0.091
  jd44                 JUNCTION     8.063   10.939     0  04:00         153         253       0.069
  jd45                 JUNCTION     3.287    5.513     0  04:00        62.4         147       0.218
  jd46                 JUNCTION     1.498    1.498     0  04:00        28.4        28.4       0.087
  jd47                 JUNCTION     4.809    4.809     0  04:00        91.3        91.3      -0.011
  jd48                 JUNCTION     1.329    1.329     0  04:00        25.3        25.3       0.022
  jd49                 JUNCTION     6.552    6.552     0  04:00         124         124       0.031
  jd50                 JUNCTION     6.785   10.715     0  04:00         129         257       0.166
  jd51                 JUNCTION     1.415    5.987     0  04:00        26.9         120       1.162
  jd52                 JUNCTION     2.893    5.668     0  01:27        54.9         114       0.085
  jd53                 JUNCTION     1.611    5.960     0  04:00        30.6         126       0.040
  jd54                 JUNCTION     0.863    4.057     0  04:00        16.4        80.1       0.043
  jd55                 JUNCTION     1.573    7.129     0  04:00        29.9         124       0.628
  jd56                 JUNCTION     0.955    2.727     0  04:00        18.1        52.7       0.040
  jd59                 JUNCTION     0.948    3.718     0  04:00          18        81.1       0.959
  jd60                 JUNCTION     1.699    3.671     0  04:00        32.2        69.2       0.185
  jd61                 JUNCTION     1.907    2.274     0  04:00        36.2          42       0.022
  jd62                 JUNCTION     0.766    1.028     0  04:00        14.6          17       0.006
  jd63                 JUNCTION     1.053    1.053     0  04:00          20          20       0.013
  jd64                 JUNCTION     0.887    2.191     0  04:00        16.8        41.6       0.889
  jd65                 JUNCTION    15.257   15.257     0  04:00         289         289       0.026
  jd66                 JUNCTION     1.991    4.794     0  04:00        37.9         103       0.308
  jd69                 JUNCTION     3.679    3.679     0  04:00          70          71       0.034
  jd79                 JUNCTION     3.584    4.500     0  04:00          68        98.8       0.179
  jd80                 JUNCTION     3.982    4.590     0  04:00        75.5          93       0.137
  jd81                 JUNCTION     3.027    3.027     0  04:00        57.4        57.4       0.005
  jd83                 JUNCTION     3.149    3.727     0  04:00        59.9        74.5       0.115
  jd84                 JUNCTION     4.002    4.002     0  04:00        76.1        76.1       0.029
  jd85                 JUNCTION     0.909    1.720     0  04:00        17.3        30.5       0.276
  jd87                 JUNCTION     0.745    1.860     0  04:00        14.1        34.6       0.215
  jd89                 JUNCTION     0.869    0.869     0  04:00        16.5        16.5       0.026
  jd90                 JUNCTION     0.886    0.886     0  04:00        16.8        16.8       0.023
  jd92                 JUNCTION     0.744    0.744     0  04:00        14.1        14.1       0.013
  jd93                 JUNCTION     1.608    2.601     0  04:00        30.5        56.9       0.063
  jd94                 JUNCTION     0.102    1.049     0  01:27        1.94        26.5       0.046
  jd95                 JUNCTION     0.194    0.987     0  01:27        3.68        24.6       0.112
  jd96                 JUNCTION     1.451    1.937     0  04:00        27.7        36.9       0.258
  jd97                 JUNCTION     1.568    1.568     0  04:00        29.8        29.8       0.019
  jd98                 JUNCTION     0.875    0.875     0  04:00        16.6        16.6       0.024
  jd99                 JUNCTION     0.421    0.779     0  04:00           8        18.2       0.315
  jd101                JUNCTION     1.146    1.855     0  04:00        21.8        39.7       0.001
  jd102                JUNCTION     1.143    1.143     0  04:00        21.7        21.7       0.034
  jd103                JUNCTION     0.787    0.787     0  04:00        14.9        14.9       0.006
  jd106                JUNCTION     0.615    3.343     0  04:00        11.7        66.1       0.590
  jd107                JUNCTION     0.888    2.777     0  04:00        16.9        54.7       0.056
  jd108                JUNCTION     0.965    0.965     0  04:00        18.4        18.4       0.357
  jd109                JUNCTION     1.615    1.615     0  04:00        30.7        30.7       0.004
  jd110                JUNCTION     1.226    1.824     0  04:00        23.4        34.8       0.442
  jd111                JUNCTION     1.018    1.018     0  04:00        19.4        19.4       0.008
  jd112                JUNCTION     1.198    2.758     0  04:00        22.7          59       0.022
  jd113                JUNCTION     0.805    0.805     0  04:00        15.4        15.4      -0.004
  jd114                JUNCTION     0.972    4.688     0  04:00        18.4         140       0.219
  jd117                JUNCTION     0.896    2.709     0  04:00          17          54       0.278
  jd118                JUNCTION     0.820    0.820     0  04:00        15.6        15.6       0.001
  jd120                JUNCTION     1.024    1.024     0  04:00        19.4        19.4       0.008
  jd121                JUNCTION     1.266    1.266     0  04:00          24          24       0.016
  jd122                JUNCTION     3.004    8.337     0  04:00          57         190       0.291
  jd123                JUNCTION     3.088    5.810     0  04:00        58.6         151       0.448
  jd124                JUNCTION     4.461    5.534     0  04:00        84.6         132       0.045
  jd125                JUNCTION     4.345    6.020     0  04:00        82.4         151       0.038
  jd126                JUNCTION     6.315    7.178     0  04:00         120         147       0.069
  jd135                JUNCTION     1.598    1.598     0  04:00        30.3        30.3       0.011
  jd136                JUNCTION     1.324    2.129     0  04:00        25.2        40.6       0.052
  psk1                 OUTFALL      0.000    1.349     0  04:00           0        28.6       0.000
  psk2                 OUTFALL      0.000    3.103     0  04:00           0        70.6       0.000
  psk3                 OUTFALL      0.000    5.968     0  05:33           0         124       0.000
  psk4                 OUTFALL      0.000    0.246     0  03:22           0       0.658       0.000
  psk5                 OUTFALL      0.000    1.266     0  04:00           0        26.5       0.000
  psk6                 OUTFALL      0.000    1.113     0  04:00           0        22.9       0.000
  psk7                 OUTFALL      0.000    3.951     0  04:00           0        99.4       0.000
  psk8                 OUTFALL      0.000    0.000     0  00:00           0           0       0.000 ltr
  
  
  **********************
  Node Surcharge Summary
  **********************
  
  Surcharging occurs when water rises above the top of the highest conduit.
  ---------------------------------------------------------------------
                                               Max. Height   Min. Depth
                                   Hours       Above Crown    Below Rim
  Node                 Type      Surcharged         Meters       Meters
  ---------------------------------------------------------------------
  jd2                  JUNCTION        5.80          2.200        0.000
  jd3                  JUNCTION       15.73          2.200        0.000
  jd4                  JUNCTION        9.66          2.200        0.000
  jd8                  JUNCTION       13.15          2.200        0.000
  jd9                  JUNCTION       11.56          2.200        0.000
  jd10                 JUNCTION       15.78          2.400        0.000
  jd12                 JUNCTION       15.78          2.400        0.000
  jd14                 JUNCTION        5.74          2.400        0.000
  jd15                 JUNCTION        2.57          2.000        0.000
  jd16                 JUNCTION        3.08          2.000        0.000
  jd17                 JUNCTION       13.20          2.200        0.000
  jd18                 JUNCTION        5.70          2.000        0.000
  jd19                 JUNCTION        9.00          2.200        0.000
  jd21                 JUNCTION       15.73          2.200        0.000
  jd22                 JUNCTION       15.72          2.400        0.000
  jd23                 JUNCTION        4.75          2.000        0.000
  jd25                 JUNCTION        4.39          2.000        0.000
  jd26                 JUNCTION        5.77          2.400        0.000
  jd27                 JUNCTION        4.48          2.400        0.000
  jd28                 JUNCTION       15.80          2.400        0.000
  jd31                 JUNCTION       15.65          2.200        0.000
  jd32                 JUNCTION       15.76          2.200        0.000
  jd34                 JUNCTION        4.79          2.400        0.000
  jd35                 JUNCTION       15.82          2.400        0.000
  jd36                 JUNCTION        7.48          2.400        0.000
  jd37                 JUNCTION        6.46          2.400        0.000
  jd38                 JUNCTION        4.64          2.000        0.000
  jd39                 JUNCTION       15.73          2.000        0.000
  jd40                 JUNCTION        8.86          2.200        0.000
  jd41                 JUNCTION       15.63          1.000        0.000
  jd42                 JUNCTION        2.77          2.200        0.000
  jd43                 JUNCTION        8.49          2.200        0.000
  jd44                 JUNCTION        8.68          2.000        0.000
  jd45                 JUNCTION       15.73          2.000        0.000
  jd46                 JUNCTION        4.49          2.200        0.000
  jd49                 JUNCTION        4.24          2.200        0.000
  jd50                 JUNCTION       15.80          2.200        0.000
  jd51                 JUNCTION       15.63          1.350        0.000
  jd52                 JUNCTION        5.77          1.500        0.000
  jd53                 JUNCTION        6.47          1.800        0.000
  jd54                 JUNCTION        2.79          1.800        0.000
  jd55                 JUNCTION        9.08          1.500        0.000
  jd59                 JUNCTION       15.61          1.500        0.000
  jd60                 JUNCTION       15.80          2.400        0.000
  jd61                 JUNCTION        1.28          2.400        0.000
  jd64                 JUNCTION       15.62          1.800        0.000
  jd65                 JUNCTION       12.30          2.400        0.000
  jd66                 JUNCTION       15.77          2.200        0.000
  jd69                 JUNCTION        2.97          2.200        0.000
  jd79                 JUNCTION       15.79          2.400        0.000
  jd80                 JUNCTION       13.48          2.400        0.000
  jd81                 JUNCTION        1.21          2.400        0.000
  jd83                 JUNCTION       15.86          2.400        0.000
  jd84                 JUNCTION        4.99          2.400        0.000
  jd85                 JUNCTION       15.80          2.400        0.000
  jd87                 JUNCTION       15.79          2.400        0.000
  jd89                 JUNCTION        3.03          2.400        0.000
  jd92                 JUNCTION        3.00          2.400        0.000
  jd93                 JUNCTION        6.28          2.200        0.000
  jd94                 JUNCTION        5.73          2.200        0.000
  jd95                 JUNCTION        5.71          2.200        0.000
  jd96                 JUNCTION       15.83          2.200        0.000
  jd97                 JUNCTION        5.72          2.200        0.000
  jd98                 JUNCTION        3.08          2.400        0.000
  jd99                 JUNCTION       15.77          2.400        0.000
  jd102                JUNCTION        4.63          2.400        0.000
  jd106                JUNCTION       15.69          2.000        0.000
  jd108                JUNCTION       15.80          2.000        0.000
  jd109                JUNCTION        2.08          2.400        0.000
  jd110                JUNCTION       15.80          2.000        0.000
  jd114                JUNCTION       15.74          2.000        0.000
  jd117                JUNCTION       15.71          2.200        0.000
  jd120                JUNCTION        3.29          2.400        0.000
  jd121                JUNCTION        2.96          2.400        0.000
  jd122                JUNCTION       15.74          2.200        0.000
  jd123                JUNCTION       15.72          2.200        0.000
  jd124                JUNCTION       15.86          2.400        0.000
  jd125                JUNCTION        9.50          2.200        0.000
  jd126                JUNCTION       15.83          2.400        0.000
  jd135                JUNCTION        2.87          2.400        0.000
  jd136                JUNCTION        3.16          2.200        0.000
  
  
  *********************
  Node Flooding Summary
  *********************
  
  Flooding refers to all water that overflows a node, whether it ponds or not.
  --------------------------------------------------------------------------
                                                             Total   Maximum
                                 Maximum   Time of Max       Flood    Ponded
                        Hours       Rate    Occurrence      Volume     Depth
  Node                 Flooded       CMS   days hr:min    10^6 ltr    Meters
  --------------------------------------------------------------------------
  jd2                     5.09     1.879      0  04:00      21.772     0.000
  jd3                    15.73     4.599      0  04:00     114.467     0.000
  jd4                     9.05     3.298      0  04:00      50.619     0.000
  jd8                     8.83     0.789      0  01:16      10.260     0.000
  jd9                     8.80     1.063      0  01:17      14.686     0.000
  jd10                   15.78     2.105      0  04:00      40.046     0.000
  jd12                   15.78     4.219      0  04:00      78.529     0.000
  jd14                    4.88     2.865      0  04:00      31.522     0.000
  jd15                    0.01     0.397      0  03:22       0.002     0.000
  jd16                    1.25     0.849      0  03:14       0.191     0.000
  jd17                   10.73     5.894      0  04:00     102.567     0.000
  jd18                    4.99     2.763      0  04:00      32.513     0.000
  jd19                    7.91     3.605      0  04:00      50.119     0.000
  jd21                   15.73     4.424      0  04:00     110.052     0.000
  jd22                    8.18     2.005      0  04:00      31.107     0.000
  jd23                    4.30     1.590      0  04:00      17.367     0.000
  jd25                    2.95     1.563      0  03:09       4.913     0.000
  jd26                    5.39     2.942      0  04:00      36.507     0.000
  jd27                    3.25     1.254      0  04:00      10.272     0.000
  jd28                   15.80     5.717      0  04:00     115.937     0.000
  jd31                    0.01     1.451      0  01:21       0.019     0.000
  jd32                   15.76     6.037      0  04:00     152.365     0.000
  jd34                    4.58     1.460      0  04:00      14.159     0.000
  jd35                   15.82     5.186      0  04:00     130.761     0.000
  jd36                    5.83     4.239      0  04:00      55.602     0.000
  jd37                    5.83     4.029      0  04:00      51.693     0.000
  jd38                    3.13     1.556      0  04:00      12.201     0.000
  jd39                   15.73     6.935      0  04:00     175.595     0.000
  jd40                    8.66     5.463      0  04:00      87.372     0.000
  jd41                   15.63    11.843      0  04:00     251.338     0.000
  jd42                    1.65     0.606      0  03:21       2.366     0.000
  jd43                    8.42     6.976      0  04:00     108.684     0.000
  jd44                    7.86     7.039      0  04:00      99.752     0.000
  jd45                   15.73     5.513      0  04:00     146.556     0.000
  jd46                    4.18     0.736      0  04:00       6.677     0.000
  jd49                    4.13     2.669      0  04:00      23.471     0.000
  jd50                   15.80    10.715      0  04:00     256.081     0.000
  jd51                   15.63     5.987      0  04:00     118.406     0.000
  jd52                    0.02     3.401      0  01:27       0.103     0.000
  jd53                    4.99     3.658      0  04:00      43.705     0.000
  jd54                    0.01     0.434      0  03:19       0.004     0.000
  jd55                    5.77     7.129      0  04:00     101.860     0.000
  jd59                   15.61     3.718      0  04:00      80.342     0.000
  jd60                   15.80     3.671      0  04:00      69.094     0.000
  jd61                    0.01     0.153      0  03:28       0.003     0.000
  jd64                    3.20     0.810      0  01:22       6.124     0.000
  jd65                   12.20    14.164      0  04:00     235.447     0.000
  jd66                   15.77     4.794      0  04:00     102.343     0.000
  jd69                    2.03     0.614      0  04:00       3.715     0.000
  jd79                   13.10     4.302      0  04:00      87.249     0.000
  jd80                   12.52     4.432      0  04:00      83.968     0.000
  jd81                    0.38     0.148      0  05:25       0.015     0.000
  jd83                   15.86     3.727      0  04:00      74.461     0.000
  jd84                    4.77     2.162      0  04:00      23.699     0.000
  jd85                   15.80     1.720      0  04:00      30.392     0.000
  jd87                   15.79     1.860      0  04:00      34.543     0.000
  jd89                    1.91     0.110      0  03:11       0.594     0.000
  jd92                    0.01     0.067      0  03:09       0.000     0.000
  jd93                    5.24     1.451      0  04:00      18.726     0.000
  jd94                    0.01     0.569      0  01:27       0.009     0.000
  jd95                    0.01     0.042      0  01:27       0.001     0.000
  jd96                   15.83     1.937      0  04:00      36.783     0.000
  jd97                    4.60     0.871      0  04:00       8.891     0.000
  jd98                    1.74     0.069      0  04:00       0.344     0.000
  jd99                   15.77     0.779      0  04:00      18.099     0.000
  jd102                   4.27     0.433      0  04:00       3.748     0.000
  jd106                  15.69     3.343      0  04:00      65.736     0.000
  jd108                   0.01     0.157      0  01:12       0.001     0.000
  jd109                   1.77     0.145      0  04:00       0.727     0.000
  jd110                  15.80     1.824      0  04:00      34.652     0.000
  jd114                  15.74     4.688      0  04:00     140.091     0.000
  jd117                   4.76     1.295      0  04:00      14.370     0.000
  jd120                   1.93     0.135      0  04:00       0.751     0.000
  jd121                   2.08     0.217      0  04:00       1.252     0.000
  jd122                  15.74     8.337      0  04:00     189.072     0.000
  jd123                  14.05     5.495      0  04:00     133.466     0.000
  jd124                  15.86     5.534      0  04:00     131.644     0.000
  jd125                   8.48     3.634      0  04:00      52.900     0.000
  jd126                  15.83     7.178      0  04:00     147.344     0.000
  jd135                   0.01     0.093      0  03:12       0.000     0.000
  jd136                   2.96     0.569      0  04:00       4.280     0.000
  
  
  ***********************
  Outfall Loading Summary
  ***********************
  
  -----------------------------------------------------------
                         Flow       Avg       Max       Total
                         Freq      Flow      Flow      Volume
  Outfall Node           Pcnt       CMS       CMS    10^6 ltr
  -----------------------------------------------------------
  psk1                  98.84     0.654     1.349      28.559
  psk2                  98.84     1.600     3.103      70.628
  psk3                  98.85     2.841     5.968     123.922
  psk4                  14.58     0.115     0.246       0.658
  psk5                  98.85     0.600     1.266      26.475
  psk6                  98.84     0.522     1.113      22.924
  psk7                  98.85     2.161     3.951      99.398
  psk8                   0.00     0.000     0.000       0.000
  -----------------------------------------------------------
  System                75.96     8.494     0.000     372.563
  
  
  ********************
  Link Flow Summary
  ********************
  
  -----------------------------------------------------------------------------
                                 Maximum  Time of Max   Maximum    Max/    Max/
                                  |Flow|   Occurrence   |Veloc|    Full    Full
  Link                 Type          CMS  days hr:min     m/sec    Flow   Depth
  -----------------------------------------------------------------------------
  GQ1                  CONDUIT     0.404     0  04:00      1.98    1.06    0.75
  GQ2                  CONDUIT     2.092     0  06:12      2.80    0.99    1.00
  GQ3                  CONDUIT     1.349     0  04:00      7.82    0.05    0.15
  GQ4                  CONDUIT     0.510     0  01:38      1.80    1.00    1.00
  GQ5                  CONDUIT     1.208     0  03:31      2.40    1.00    1.00
  GQ6                  CONDUIT     0.684     0  04:00      1.85    0.31    0.69
  GQ7                  CONDUIT     1.714     0  01:19      3.61    1.02    1.00
  GQ8                  CONDUIT     1.045     0  03:37      2.08    1.00    1.00
  GQ9                  CONDUIT     2.837     0  04:06      5.74    1.00    1.00
  GQ10                 CONDUIT     1.136     0  08:21      4.10    1.04    1.00
  GQ11                 CONDUIT     0.515     0  04:00      2.37    0.55    0.77
  GQ12                 CONDUIT     0.668     0  04:00      2.70    0.73    0.82
  GQ13                 CONDUIT     0.338     0  04:00      1.00    0.16    0.64
  GQ14                 CONDUIT     0.202     0  04:00      1.43    0.29    0.32
  GQ15                 CONDUIT     0.248     0  03:06      4.42    1.00    0.86
  GQ16                 CONDUIT     2.026     0  04:00      4.12    0.98    0.65
  GQ17                 CONDUIT     0.965     0  04:00      2.68    0.30    0.67
  GQ18                 CONDUIT     1.118     0  03:09      2.50    5.04    0.98
  GQ19                 CONDUIT     1.327     0  04:00      3.21    0.16    0.52
  GQ20                 CONDUIT     0.291     0  04:00      0.56    0.16    0.63
  GQ21                 CONDUIT     1.091     0  04:00      1.86    0.34    0.70
  GQ22                 CONDUIT     1.105     0  04:00      1.96    0.34    0.70
  GQ23                 CONDUIT     2.040     0  03:29      2.60    1.00    1.00
  GQ24                 CONDUIT     2.020     0  03:31      4.02    1.00    1.00
  GQ25                 CONDUIT     1.106     0  05:20      4.11    1.24    1.00
  GQ26                 CONDUIT     0.823     0  03:09      3.06    0.96    1.00
  GQ27                 CONDUIT     0.997     0  03:30      3.52    1.00    1.00
  GQ28                 CONDUIT     0.464     0  04:00      0.97    0.50    0.90
  GQ29                 CONDUIT     2.096     0  04:00      4.17    0.98    1.00
  GQ30                 CONDUIT     0.824     0  02:10      2.91    1.00    1.00
  GQ31                 CONDUIT     0.747     0  01:48      2.64    1.00    1.00
  GQ32                 CONDUIT     0.739     0  01:36      2.99    1.19    1.00
  GQ33                 CONDUIT     1.434     0  02:11      5.07    1.00    1.00
  GQ34                 CONDUIT     0.638     0  03:32      2.26    1.00    1.00
  GQ35                 CONDUIT     0.712     0  01:22      2.53    1.32    1.00
  GQ36                 CONDUIT     0.974     0  01:21      3.45    1.21    1.00
  GQ37                 CONDUIT     0.699     0  03:24      2.47    1.00    1.00
  GQ38                 CONDUIT     0.225     0  04:00      0.98    0.32    0.75
  GQ39                 CONDUIT     0.782     0  04:15      2.76    1.00    1.00
  GQ40                 CONDUIT     0.804     0  04:15      2.84    1.00    1.00
  GQ41                 CONDUIT     2.160     0  04:22      2.75    1.00    1.00
  GQ42                 CONDUIT     1.359     0  01:59      2.70    1.00    1.00
  GQ43                 CONDUIT     2.313     0  11:50      4.70    1.03    1.00
  GQ44                 CONDUIT     0.946     0  01:39      1.88    1.00    1.00
  GQ45                 CONDUIT     1.976     0  04:00      4.15    0.80    0.90
  GQ46                 CONDUIT     1.103     0  01:17      2.32    1.03    1.00
  GQ47                 CONDUIT     0.429     0  04:00      1.96    0.41    0.72
  GQ48                 CONDUIT     0.427     0  04:00      1.95    0.41    0.72
  GQ49                 CONDUIT     1.928     0  04:00      7.80    0.73    0.82
  GQ50                 CONDUIT     0.543     0  04:00      2.20    0.71    0.82
  GQ51                 CONDUIT     0.995     0  01:31      3.62    1.52    1.00
  GQ52                 CONDUIT     0.852     0  07:01      1.70    1.13    1.00
  GQ53                 CONDUIT     2.225     0  02:18      2.83    1.00    1.00
  GQ54                 CONDUIT     1.158     0  04:00      4.13    0.99    1.00
  GQ55                 CONDUIT     0.814     0  04:00      3.51    0.55    0.77
  GQ56                 CONDUIT     1.996     0  01:20      4.31    1.09    1.00
  GQ57                 CONDUIT     1.531     0  03:46      3.05    1.00    1.00
  GQ58                 CONDUIT     3.188     0  04:03      6.34    1.00    1.00
  GQ59                 CONDUIT     1.203     0  01:52      2.39    1.00    1.00
  GQ60                 CONDUIT     3.023     0  01:27      2.11    0.73    1.00
  GQ61                 CONDUIT     0.568     0  04:00      0.79    0.07    0.59
  GQ62                 CONDUIT     1.449     0  04:00      1.02    0.15    0.63
  GQ63                 CONDUIT     3.360     0  04:00      1.98    0.10    0.61
  GQ64                 CONDUIT     0.366     0  04:00      2.19    0.28    0.68
  GQ65                 CONDUIT     0.262     0  04:00      1.28    0.47    0.68
  GQ66                 CONDUIT     0.418     0  04:00      1.28    0.12    0.62
  GQ67                 CONDUIT     1.442     0  04:00      1.28    1.00    1.00
  GQ68                 CONDUIT     2.369     0  04:00      3.22    0.75    0.89
  GQ69                 CONDUIT     2.931     0  03:10      5.96    1.05    1.00
  GQ70                 CONDUIT     1.113     0  04:00     10.12    0.16    0.27
  GQ71                 CONDUIT     1.266     0  04:00      7.19    0.31    0.38
  GQ72                 CONDUIT     3.951     0  04:00      6.06    0.94    0.77
  GQ73                 CONDUIT     3.103     0  04:00     15.33    0.20    0.30
  GQ74                 CONDUIT     0.854     0  04:00      1.67    0.15    0.63
  GQ75                 CONDUIT     0.696     0  04:00      1.28    0.20    0.65
  GQ76                 CONDUIT     5.968     0  05:33      7.60    1.29    1.00
  GQ77                 CONDUIT     0.246     0  03:22      0.51    0.07    0.59
  GQ78                 CONDUIT     0.916     0  06:20      3.24    1.00    1.00
  GQ79                 CONDUIT     0.256     0  03:07      1.08    0.55    1.00
  GQ80                 CONDUIT     0.608     0  03:23      2.15    1.00    1.00
  GQ81                 CONDUIT     0.605     0  01:16      2.25    3.83    1.00
  GQ82                 CONDUIT     1.450     0  03:45      5.13    1.00    1.00
  GQ83                 CONDUIT     1.564     0  03:42      5.70    1.00    1.00
  GQ84                 CONDUIT     1.303     0  02:19      4.72    1.03    1.00
  GQ85                 CONDUIT     0.579     0  06:26      2.05    1.00    1.00
  GQ86                 CONDUIT     0.662     0  04:00      3.22    0.28    0.68
  GQ87                 CONDUIT     0.149     0  04:00      0.75    0.22    0.66
  GQ88                 CONDUIT     1.115     0  04:00      3.94    0.99    1.00
  GQ89                 CONDUIT     0.759     0  03:23      2.68    1.00    1.00
  GQ90                 CONDUIT     0.886     0  04:00      3.30    0.89    0.90
  GQ91                 CONDUIT     0.744     0  04:00      2.63    0.91    1.00
  GQ92                 CONDUIT     0.987     0  01:27      2.21    1.42    1.00
  GQ93                 CONDUIT     0.993     0  04:00      1.98    0.85    1.00
  GQ94                 CONDUIT     1.326     0  01:24      2.64    1.57    1.00
  GQ95                 CONDUIT     0.486     0  04:00      1.49    0.12    0.62
  GQ96                 CONDUIT     0.875     0  01:27      1.74    1.49    1.00
  GQ97                 CONDUIT     0.811     0  03:14      2.87    1.46    1.00
  GQ98                 CONDUIT     0.358     0  04:00      1.27    0.51    1.00
  GQ99                 CONDUIT     1.287     0  04:00      1.28    0.07    0.59
  GQ100                CONDUIT     0.710     0  04:00      3.31    1.22    0.73
  GQ101                CONDUIT     0.787     0  04:00      3.33    0.59    0.78
  GQ102                CONDUIT     2.992     0  04:00      6.40    0.91    0.88
  GQ103                CONDUIT     0.650     0  03:26      2.30    1.00    1.00
  GQ104                CONDUIT     1.389     0  01:35      5.02    1.01    1.00
  GQ105                CONDUIT     0.912     0  01:16      1.82    2.90    1.00
  GQ106                CONDUIT     0.779     0  04:00      3.09    0.78    0.83
  GQ107                CONDUIT     1.114     0  01:43      3.94    1.00    1.00
  GQ108                CONDUIT     0.829     0  05:28      1.65    1.00    1.00
  GQ109                CONDUIT     0.628     0  04:00      2.22    0.85    1.00
  GQ110                CONDUIT     1.062     0  04:00      2.03    0.15    0.63
  GQ111                CONDUIT     0.969     0  04:00      3.43    0.88    1.00
  GQ112                CONDUIT     2.777     0  04:00      3.67    0.50    0.75
  GQ113                CONDUIT     1.472     0  03:22      5.23    1.11    1.00
  GQ114                CONDUIT     0.965     0  04:00      1.31    0.40    0.89
  GQ115                CONDUIT     0.420     0  04:00      1.29    0.06    0.33
  GQ116                CONDUIT     0.598     0  04:00      1.22    0.08    0.60
  GQ117                CONDUIT     1.561     0  04:00      4.85    0.97    0.64
  GQ118                CONDUIT     0.805     0  04:00      3.71    0.27    0.68
  GQ119                CONDUIT     2.302     0  01:49      4.58    1.00    1.00
  GQ120                CONDUIT     0.000     0  00:00      0.00    0.00    0.50
  GQ121                CONDUIT     1.414     0  03:35      2.81    1.00    1.00
  GQ122                CONDUIT     0.993     0  04:00      2.90    0.18    0.64
  GQ123                CONDUIT     0.820     0  04:00      4.12    0.39    0.72
  GQ124                CONDUIT     0.416     0  04:00      1.30    0.18    0.64
  GQ125                CONDUIT     0.889     0  03:20      3.14    1.00    1.00
  GQ126                CONDUIT     1.049     0  03:26      3.71    1.00    1.00
  GQ127                CONDUIT     0.825     0  07:16      1.67    1.06    1.00
  GQ128                CONDUIT     4.057     0  04:00      3.59    0.88    1.00
  GQ129                CONDUIT     1.313     0  03:31      2.61    1.00    1.00
  GQ130                CONDUIT     1.073     0  01:52      3.79    1.00    1.00
  GQ131                CONDUIT     0.862     0  01:37      3.05    1.00    1.00
  
  
  ***************************
  Flow Classification Summary
  ***************************
  
  -------------------------------------------------------------------------------------
                      Adjusted    ---------- Fraction of Time in Flow Class ---------- 
                       /Actual         Up    Down  Sub   Sup   Up    Down  Norm  Inlet 
  Conduit               Length    Dry  Dry   Dry   Crit  Crit  Crit  Crit  Ltd   Ctrl  
  -------------------------------------------------------------------------------------
  GQ1                     1.00   0.01  0.00  0.00  0.43  0.56  0.00  0.00  0.00  0.00
  GQ2                     1.00   0.01  0.00  0.00  0.30  0.69  0.00  0.00  0.74  0.00
  GQ3                     1.00   0.01  0.00  0.00  0.00  0.99  0.00  0.00  0.23  0.00
  GQ4                     1.00   0.01  0.00  0.00  0.99  0.00  0.00  0.00  0.18  0.00
  GQ5                     1.00   0.01  0.00  0.00  0.99  0.00  0.00  0.00  0.43  0.00
  GQ6                     1.00   0.01  0.00  0.00  0.98  0.01  0.00  0.00  0.94  0.00
  GQ7                     1.00   0.01  0.00  0.00  0.72  0.27  0.00  0.00  0.09  0.00
  GQ8                     1.00   0.01  0.00  0.00  0.99  0.00  0.00  0.00  0.65  0.00
  GQ9                     1.00   0.01  0.00  0.00  0.67  0.32  0.00  0.00  0.66  0.00
  GQ10                    1.00   0.01  0.00  0.00  0.94  0.05  0.00  0.00  0.20  0.00
  GQ11                    1.00   0.01  0.00  0.00  0.28  0.71  0.00  0.00  0.93  0.00
  GQ12                    1.00   0.01  0.00  0.00  0.71  0.27  0.00  0.00  0.94  0.00
  GQ13                    1.00   0.01  0.00  0.00  0.99  0.00  0.00  0.00  0.94  0.00
  GQ14                    1.00   0.01  0.00  0.00  0.59  0.40  0.00  0.00  0.00  0.00
  GQ15                    1.00   0.01  0.00  0.00  0.00  0.99  0.00  0.00  0.00  0.00
  GQ16                    1.00   0.01  0.00  0.00  0.00  0.99  0.00  0.00  0.00  0.00
  GQ17                    1.00   0.01  0.00  0.00  0.48  0.51  0.00  0.00  0.94  0.00
  GQ18                    1.00   0.01  0.00  0.00  0.87  0.12  0.00  0.00  0.01  0.00
  GQ19                    1.00   0.01  0.00  0.00  0.29  0.70  0.00  0.00  0.94  0.00
  GQ20                    1.00   0.01  0.00  0.00  0.99  0.00  0.00  0.00  0.94  0.00
  GQ21                    1.00   0.01  0.00  0.00  0.79  0.19  0.00  0.00  0.94  0.00
  GQ22                    1.00   0.01  0.00  0.00  0.46  0.53  0.00  0.00  0.94  0.00
  GQ23                    1.00   0.01  0.00  0.00  0.44  0.54  0.00  0.00  0.25  0.00
  GQ24                    1.00   0.01  0.00  0.00  0.92  0.07  0.00  0.00  0.59  0.00
  GQ25                    1.00   0.01  0.00  0.00  0.14  0.85  0.00  0.00  0.00  0.00
  GQ26                    1.00   0.01  0.00  0.00  0.22  0.77  0.00  0.00  0.67  0.00
  GQ27                    1.00   0.01  0.00  0.00  0.79  0.20  0.00  0.00  0.44  0.00
  GQ28                    1.00   0.01  0.00  0.00  0.99  0.00  0.00  0.00  0.59  0.00
  GQ29                    1.00   0.01  0.00  0.00  0.99  0.00  0.00  0.00  0.02  0.00
  GQ30                    1.00   0.01  0.00  0.00  0.98  0.01  0.00  0.00  0.00  0.00
  GQ31                    1.00   0.01  0.00  0.00  0.99  0.00  0.00  0.00  0.57  0.00
  GQ32                    1.00   0.01  0.00  0.00  0.42  0.57  0.00  0.00  0.00  0.00
  GQ33                    1.00   0.01  0.00  0.00  0.72  0.27  0.00  0.00  0.41  0.00
  GQ34                    1.00   0.01  0.00  0.00  0.98  0.01  0.00  0.00  0.64  0.00
  GQ35                    1.00   0.01  0.00  0.00  0.66  0.33  0.00  0.00  0.43  0.00
  GQ36                    1.00   0.01  0.00  0.00  0.56  0.43  0.00  0.00  0.54  0.00
  GQ37                    1.00   0.01  0.00  0.00  0.99  0.00  0.00  0.00  0.48  0.00
  GQ38                    1.00   0.01  0.00  0.00  0.99  0.00  0.00  0.00  0.59  0.00
  GQ39                    1.00   0.01  0.00  0.00  0.98  0.01  0.00  0.00  0.48  0.00
  GQ40                    1.00   0.01  0.00  0.00  0.50  0.49  0.00  0.00  0.60  0.00
  GQ41                    1.00   0.01  0.00  0.00  0.99  0.00  0.00  0.00  0.41  0.00
  GQ42                    1.00   0.01  0.00  0.00  0.99  0.00  0.00  0.00  0.37  0.00
  GQ43                    1.00   0.01  0.00  0.00  0.56  0.43  0.00  0.00  0.52  0.00
  GQ44                    1.00   0.01  0.00  0.00  0.99  0.00  0.00  0.00  0.18  0.00
  GQ45                    1.00   0.01  0.00  0.00  0.31  0.68  0.00  0.00  0.66  0.00
  GQ46                    1.00   0.01  0.00  0.00  0.89  0.10  0.00  0.00  0.34  0.00
  GQ47                    1.00   0.01  0.00  0.00  0.99  0.00  0.00  0.00  0.94  0.00
  GQ48                    1.00   0.01  0.00  0.00  0.99  0.00  0.00  0.00  0.94  0.00
  GQ49                    1.00   0.01  0.00  0.00  0.30  0.69  0.00  0.00  0.94  0.00
  GQ50                    1.00   0.01  0.00  0.00  0.99  0.00  0.00  0.00  0.85  0.00
  GQ51                    1.00   0.01  0.00  0.00  0.44  0.55  0.00  0.00  0.44  0.00
  GQ52                    1.00   0.01  0.00  0.00  0.99  0.00  0.00  0.00  0.63  0.00
  GQ53                    1.00   0.01  0.00  0.00  0.99  0.00  0.00  0.00  0.38  0.00
  GQ54                    1.00   0.01  0.00  0.00  0.67  0.32  0.00  0.00  0.77  0.00
  GQ55                    1.00   0.01  0.00  0.00  0.57  0.42  0.00  0.00  0.94  0.00
  GQ56                    1.00   0.01  0.00  0.00  0.69  0.30  0.00  0.00  0.40  0.00
  GQ57                    1.00   0.01  0.00  0.00  0.99  0.00  0.00  0.00  0.74  0.00
  GQ58                    1.00   0.01  0.00  0.00  0.66  0.33  0.00  0.00  0.76  0.00
  GQ59                    1.00   0.01  0.00  0.00  0.99  0.00  0.00  0.00  0.38  0.00
  GQ60                    1.00   0.01  0.00  0.00  0.99  0.00  0.00  0.00  0.02  0.00
  GQ61                    1.00   0.01  0.00  0.00  0.99  0.00  0.00  0.00  0.94  0.00
  GQ62                    1.00   0.01  0.00  0.00  0.99  0.00  0.00  0.00  0.94  0.00
  GQ63                    1.00   0.01  0.00  0.00  0.98  0.01  0.00  0.00  0.94  0.00
  GQ64                    1.00   0.01  0.00  0.00  0.25  0.73  0.00  0.00  0.94  0.00
  GQ65                    1.00   0.01  0.00  0.00  0.99  0.00  0.00  0.00  0.77  0.00
  GQ66                    1.00   0.01  0.00  0.00  0.99  0.00  0.00  0.00  0.94  0.00
  GQ67                    1.00   0.01  0.00  0.00  0.99  0.00  0.00  0.00  0.00  0.00
  GQ68                    1.00   0.01  0.00  0.00  0.99  0.00  0.00  0.00  0.75  0.00
  GQ69                    1.00   0.01  0.00  0.00  0.61  0.38  0.00  0.00  0.76  0.00
  GQ70                    1.00   0.01  0.00  0.00  0.00  0.99  0.00  0.00  0.00  0.00
  GQ71                    1.00   0.01  0.00  0.00  0.00  0.99  0.00  0.00  0.11  0.00
  GQ72                    1.00   0.01  0.00  0.00  0.00  0.99  0.00  0.00  0.34  0.00
  GQ73                    1.00   0.01  0.00  0.00  0.00  0.99  0.00  0.00  0.00  0.00
  GQ74                    1.00   0.01  0.00  0.00  0.97  0.02  0.00  0.00  0.94  0.00
  GQ75                    1.00   0.01  0.00  0.00  0.99  0.00  0.00  0.00  0.94  0.00
  GQ76                    1.00   0.01  0.00  0.00  0.28  0.71  0.00  0.00  0.31  0.00
  GQ77                    1.00   0.01  0.84  0.00  0.15  0.00  0.00  0.00  0.71  0.00
  GQ78                    1.00   0.01  0.00  0.00  0.79  0.20  0.00  0.00  0.41  0.00
  GQ79                    1.00   0.01  0.00  0.00  0.99  0.00  0.00  0.00  0.01  0.00
  GQ80                    1.00   0.01  0.00  0.00  0.99  0.00  0.00  0.00  0.25  0.00
  GQ81                    1.00   0.01  0.00  0.00  0.99  0.00  0.00  0.00  0.00  0.00
  GQ82                    1.00   0.01  0.00  0.00  0.59  0.40  0.00  0.00  0.76  0.00
  GQ83                    1.00   0.01  0.00  0.00  0.11  0.88  0.00  0.00  0.83  0.00
  GQ84                    1.00   0.01  0.00  0.00  0.53  0.46  0.00  0.00  0.63  0.00
  GQ85                    1.00   0.01  0.00  0.00  0.99  0.00  0.00  0.00  0.37  0.00
  GQ86                    1.00   0.01  0.00  0.00  0.72  0.27  0.00  0.00  0.94  0.00
  GQ87                    1.00   0.01  0.00  0.00  0.99  0.00  0.00  0.00  0.94  0.00
  GQ88                    1.00   0.01  0.00  0.00  0.68  0.31  0.00  0.00  0.76  0.00
  GQ89                    1.00   0.01  0.00  0.00  0.98  0.00  0.00  0.00  0.66  0.00
  GQ90                    1.00   0.01  0.00  0.00  0.57  0.42  0.00  0.00  0.76  0.00
  GQ91                    1.00   0.01  0.00  0.00  0.98  0.00  0.00  0.00  0.66  0.00
  GQ92                    1.00   0.01  0.00  0.00  0.94  0.05  0.00  0.00  0.01  0.00
  GQ93                    1.00   0.01  0.00  0.00  0.99  0.00  0.00  0.00  0.59  0.00
  GQ94                    1.00   0.01  0.00  0.00  0.77  0.22  0.00  0.00  0.07  0.00
  GQ95                    1.00   0.01  0.00  0.00  0.99  0.00  0.00  0.00  0.94  0.00
  GQ96                    1.00   0.01  0.00  0.00  0.99  0.00  0.00  0.00  0.29  0.00
  GQ97                    1.00   0.01  0.00  0.00  0.31  0.68  0.00  0.00  0.35  0.00
  GQ98                    1.00   0.01  0.00  0.00  0.99  0.00  0.00  0.00  0.41  0.00
  GQ99                    1.00   0.01  0.00  0.00  0.98  0.00  0.00  0.00  0.94  0.00
  GQ100                   1.00   0.01  0.00  0.00  0.00  0.99  0.00  0.00  0.00  0.00
  GQ101                   1.00   0.01  0.00  0.00  0.57  0.42  0.00  0.00  0.85  0.00
  GQ102                   1.00   0.01  0.00  0.00  0.43  0.56  0.00  0.00  0.86  0.00
  GQ103                   1.00   0.01  0.00  0.00  0.99  0.00  0.00  0.00  0.59  0.00
  GQ104                   1.00   0.01  0.00  0.00  0.66  0.32  0.00  0.00  0.66  0.00
  GQ105                   1.00   0.01  0.00  0.00  0.99  0.00  0.00  0.00  0.01  0.00
  GQ106                   1.00   0.01  0.00  0.00  0.58  0.41  0.00  0.00  0.85  0.00
  GQ107                   1.00   0.01  0.00  0.00  0.76  0.23  0.00  0.00  0.55  0.00
  GQ108                   1.00   0.01  0.00  0.00  0.99  0.00  0.00  0.00  0.01  0.00
  GQ109                   1.00   0.01  0.00  0.00  0.98  0.01  0.00  0.00  0.66  0.00
  GQ110                   1.00   0.01  0.00  0.00  0.98  0.00  0.00  0.00  0.94  0.00
  GQ111                   1.00   0.01  0.00  0.00  0.84  0.15  0.00  0.00  0.65  0.00
  GQ112                   1.00   0.01  0.00  0.00  0.10  0.89  0.00  0.00  0.93  0.00
  GQ113                   1.00   0.01  0.00  0.00  0.15  0.84  0.00  0.00  0.81  0.00
  GQ114                   1.00   0.01  0.00  0.00  0.99  0.00  0.00  0.00  0.01  0.00
  GQ115                   1.00   0.01  0.00  0.00  0.98  0.01  0.00  0.00  0.94  0.00
  GQ116                   1.00   0.01  0.00  0.00  0.99  0.00  0.00  0.00  0.94  0.00
  GQ117                   1.00   0.01  0.00  0.00  0.00  0.99  0.00  0.00  0.00  0.00
  GQ118                   1.00   0.01  0.00  0.00  0.41  0.58  0.00  0.00  0.94  0.00
  GQ119                   1.00   0.01  0.00  0.00  0.87  0.11  0.00  0.00  0.40  0.00
  GQ120                   1.00   0.01  0.01  0.00  0.98  0.00  0.00  0.00  0.00  0.00
  GQ121                   1.00   0.01  0.00  0.00  0.98  0.00  0.00  0.00  0.01  0.00
  GQ122                   1.00   0.01  0.00  0.00  0.57  0.42  0.00  0.00  0.94  0.00
  GQ123                   1.00   0.01  0.00  0.00  0.55  0.44  0.00  0.00  0.94  0.00
  GQ124                   1.00   0.01  0.00  0.00  0.98  0.01  0.00  0.00  0.94  0.00
  GQ125                   1.00   0.01  0.00  0.00  0.98  0.00  0.00  0.00  0.64  0.00
  GQ126                   1.00   0.01  0.00  0.00  0.79  0.20  0.00  0.00  0.68  0.00
  GQ127                   1.00   0.01  0.00  0.00  0.99  0.00  0.00  0.00  0.28  0.00
  GQ128                   1.00   0.01  0.00  0.00  0.64  0.35  0.00  0.00  0.65  0.00
  GQ129                   1.00   0.01  0.00  0.00  0.99  0.00  0.00  0.00  0.20  0.00
  GQ130                   1.00   0.01  0.00  0.00  0.85  0.14  0.00  0.00  0.20  0.00
  GQ131                   1.00   0.01  0.00  0.00  0.84  0.15  0.00  0.00  0.45  0.00
  
  
  *************************
  Conduit Surcharge Summary
  *************************
  
  ----------------------------------------------------------------------------
                                                           Hours        Hours 
                         --------- Hours Full --------   Above Full   Capacity
  Conduit                Both Ends  Upstream  Dnstream   Normal Flow   Limited
  ----------------------------------------------------------------------------
  GQ1                         0.01      4.62      0.01      1.75         0.01
  GQ2                         2.57      2.57      3.08      0.01         0.01
  GQ4                        10.37     10.37     15.74      0.01         0.01
  GQ5                         5.80      5.80     15.73      0.01         0.01
  GQ6                         0.01      0.01      5.80      0.01         0.01
  GQ7                         8.99      8.99      9.50      0.01         0.01
  GQ8                         4.24      4.24      8.99      0.01         0.01
  GQ9                         4.24      4.24     15.80      0.01         0.01
  GQ10                       12.30     12.30     15.81      0.20         0.01
  GQ11                        0.01      0.01      2.98      0.01         0.01
  GQ12                        0.01      0.01     13.73      0.01         0.01
  GQ13                        0.01      0.01      9.66      0.01         0.01
  GQ15                        0.01      3.04      0.01      0.01         0.01
  GQ16                        0.01      4.64      0.01      0.01         0.01
  GQ18                        0.01      0.01     13.14     13.51         0.01
  GQ20                        0.01      0.01      5.70      0.01         0.01
  GQ21                        0.01      0.01      5.70      0.01         0.01
  GQ22                        0.01      0.01      4.39      0.01         0.01
  GQ23                        4.39      4.39      4.75      0.01         0.01
  GQ24                        4.90      4.90     15.76      0.01         0.01
  GQ25                        0.50      4.79      0.50      4.76         0.50
  GQ26                        0.50      0.50      5.07      0.01         0.01
  GQ27                        5.07      5.07     15.72      0.01         0.01
  GQ28                        0.01      0.01     15.73      0.01         0.01
  GQ29                       15.65     15.65     15.73      0.01         0.01
  GQ30                       15.72     15.72     15.74      0.01         0.01
  GQ31                        4.79      4.79     15.82      0.01         0.01
  GQ32                        4.48      7.48      4.48      3.22         1.23
  GQ33                        7.48      7.48     15.82      0.01         0.01
  GQ34                        2.98      2.98      7.48      0.01         0.01
  GQ35                        6.42      6.46      7.48      0.12         0.01
  GQ36                        6.29      6.46      6.33      3.66         3.15
  GQ37                        4.48      4.48     15.80      0.01         0.01
  GQ38                        0.01      0.01     15.80      0.01         0.01
  GQ39                        5.77      5.77     13.73      0.01         0.01
  GQ40                        4.48      4.48      5.77      0.01         0.01
  GQ41                        4.64      4.64     15.73      0.01         0.01
  GQ42                        8.86      8.86     15.74      0.01         0.01
  GQ43                        6.60      6.60      8.86      0.34         0.01
  GQ44                       11.56     11.56     13.14      0.01         0.01
  GQ45                        0.01      0.01      9.00      0.01         0.01
  GQ46                        9.00      9.00     11.56      0.01         0.01
  GQ47                        0.01      0.01     15.78      0.01         0.01
  GQ48                        0.01      0.01     15.78      0.01         0.01
  GQ49                        0.01      0.01     15.78      0.01         0.01
  GQ50                        0.01      0.01      5.74      0.01         0.01
  GQ51                        4.62      5.74      4.62      5.81         4.62
  GQ52                        4.49      4.49     15.65      4.26         4.26
  GQ53                        8.68      8.68     15.73      0.01         0.01
  GQ54                        1.28      1.28     15.80      0.01         0.01
  GQ55                        0.01      0.01     15.80      0.01         0.01
  GQ56                        8.44      8.49      8.99      0.89         0.51
  GQ57                        2.77      2.77      8.49      0.01         0.01
  GQ58                        2.77      2.77     15.72      0.01         0.01
  GQ59                        8.86      8.86     15.72      0.01         0.01
  GQ60                        5.77      5.77      9.08      0.01         0.01
  GQ61                        0.01      0.01     15.61      0.01         0.01
  GQ62                        0.01      0.01     15.63      0.01         0.01
  GQ63                        0.01      0.01     15.63      0.01         0.01
  GQ64                        0.01      0.01      1.28      0.01         0.01
  GQ65                        0.01      0.01      3.12      0.01         0.01
  GQ66                        0.01      0.01     15.65      0.01         0.01
  GQ67                       15.62     15.62     15.63      0.01         0.01
  GQ68                        0.01      0.01     15.69      0.01         0.01
  GQ69                        2.97      2.97     15.77      0.07         0.01
  GQ74                        0.01      0.01      3.08      0.01         0.01
  GQ75                        0.01      0.01     15.69      0.01         0.01
  GQ76                        3.08      3.08      3.22      3.22         3.07
  GQ77                        0.01      0.01     13.63      0.01         0.01
  GQ78                        5.97      5.97     15.79      0.01         0.01
  GQ79                        1.60      1.60     15.79      0.01         0.01
  GQ80                        5.97      5.97     13.48      0.01         0.01
  GQ81                       13.41     13.48     13.73     13.17         2.34
  GQ82                        1.21      1.21     13.73      0.01         0.01
  GQ83                        1.21      1.21      4.81      0.01         0.01
  GQ84                        4.99      4.99      9.00      0.09         0.01
  GQ85                        4.99      4.99     15.86      0.01         0.01
  GQ86                        0.01      0.01     15.80      0.01         0.01
  GQ87                        0.01      0.01     15.80      0.01         0.01
  GQ88                        1.28      1.28     15.79      0.01         0.01
  GQ89                        3.03      3.03     15.71      0.01         0.01
  GQ90                        0.01      0.01     15.67      0.01         0.01
  GQ91                        3.00      3.00     15.73      0.01         0.01
  GQ92                        5.66      5.71      5.73      4.89         4.78
  GQ93                        5.73      5.73      6.28      0.01         0.01
  GQ94                        6.26      6.28      6.60      6.69         5.94
  GQ95                        0.01      0.01     15.83      0.01         0.01
  GQ96                        5.69      5.72      5.71      5.02         4.90
  GQ97                        2.95      3.08      2.95      3.25         2.95
  GQ98                        2.95      2.95     15.77      0.01         0.01
  GQ99                        0.01      0.01     15.64      0.01         0.01
  GQ100                       0.01      4.63      0.01      4.53         0.01
  GQ101                       0.01      0.01     15.74      0.01         0.01
  GQ102                       0.01      0.01     15.74      0.01         0.01
  GQ103                       4.74      4.74     15.76      0.01         0.01
  GQ104                       4.48      4.48     15.76      0.08         0.01
  GQ105                      15.72     15.72     15.74     13.34         0.01
  GQ106                       0.01      0.01     15.73      0.01         0.01
  GQ107                       5.77      5.77     15.73      0.01         0.01
  GQ108                      13.20     13.20     15.72      0.01         0.01
  GQ109                       2.87      2.87      5.77      0.01         0.01
  GQ110                       0.01      0.01     15.69      0.01         0.01
  GQ111                       2.87      2.87     15.74      0.01         0.01
  GQ112                       0.01      0.01      2.79      0.01         0.01
  GQ113                       0.01      2.08      0.01      2.19         0.01
  GQ114                       0.01      0.01     15.80      0.01         0.01
  GQ116                       0.01      0.01     15.80      0.01         0.01
  GQ117                       0.01      3.16      0.01      0.01         0.01
  GQ118                       0.01      0.01      3.16      0.01         0.01
  GQ119                       7.66      7.66     15.75      0.01         0.01
  GQ120                       0.01      0.01     15.74      0.01         0.01
  GQ121                      15.71     15.71     15.75      0.01         0.01
  GQ122                       0.01      0.01     15.71      0.01         0.01
  GQ123                       0.01      0.01     15.72      0.01         0.01
  GQ124                       0.01      0.01      3.12      0.01         0.01
  GQ125                       3.29      3.29     15.73      0.01         0.01
  GQ126                       2.96      2.96     15.74      0.01         0.01
  GQ127                       6.60      6.60      7.66      0.08         0.07
  GQ128                       2.79      2.79      6.47      0.01         0.01
  GQ129                       9.50      9.50     15.76      0.01         0.01
  GQ130                       9.81      9.81     15.86      0.01         0.01
  GQ131                       5.74      5.74     15.83      0.01         0.01
  

  Analysis begun on:  Sat Mar 25 16:22:16 2023
  Analysis ended on:  Sat Mar 25 16:22:21 2023
  Total elapsed time: 00:00:05