
  OWA STORM WATER MANAGEMENT MODEL - VERSION v5.1.14 (OWA 2022-07-31)
  --------------------------------------------------------------

  INP file created by DSDAConvertToSwmmTools 
  version 0.0.1 EcoVista 
  Title/Notes: 
  
  
  *********************************************************
  NOTE: The summary statistics displayed in this report are
  based on results found at every computational time step,  
  not just on results from each reporting time step.
  *********************************************************
  
  ****************
  Analysis Options
  ****************
  Flow Units ............... CMS
  Process Models:
    Rainfall/Runoff ........ YES
    RDII ................... NO
    Snowmelt ............... NO
    Groundwater ............ NO
    Flow Routing ........... YES
    Ponding Allowed ........ NO
    Water Quality .......... NO
  Infiltration Method ...... GREEN_AMPT
  Flow Routing Method ...... DYNWAVE
  Surcharge Method ......... EXTRAN
  Starting Date ............ 07/15/2020 00:00:00
  Ending Date .............. 07/15/2020 17:00:00
  Antecedent Dry Days ...... 0.0
  Report Time Step ......... 00:30:00
  Wet Time Step ............ 00:05:00
  Dry Time Step ............ 01:00:00
  Routing Time Step ........ 30.00 sec
  Variable Time Step ....... YES
  Maximum Trials ........... 8
  Number of Threads ........ 1
  Head Tolerance ........... 0.001500 m
  
  
  **************************        Volume         Depth
  Runoff Quantity Continuity     hectare-m            mm
  **************************     ---------       -------
  Total Precipitation ......       202.222        50.600
  Evaporation Loss .........         6.021         1.506
  Infiltration Loss ........        54.043        13.523
  Surface Runoff ...........       134.127        33.561
  Final Storage ............         8.215         2.056
  Continuity Error (%) .....        -0.090
  
  
  **************************        Volume        Volume
  Flow Routing Continuity        hectare-m      10^6 ltr
  **************************     ---------     ---------
  Dry Weather Inflow .......         0.000         0.000
  Wet Weather Inflow .......       133.986      1339.878
  Groundwater Inflow .......         0.000         0.000
  RDII Inflow ..............         0.000         0.000
  External Inflow ..........         0.000         0.000
  External Outflow .........        12.536       125.360
  Flooding Loss ............       119.819      1198.206
  Evaporation Loss .........         0.000         0.000
  Exfiltration Loss ........         0.000         0.000
  Initial Stored Volume ....         0.000         0.000
  Final Stored Volume ......         1.441        14.409
  Continuity Error (%) .....         0.142
  
  
  *************************
  Highest Continuity Errors
  *************************
  Node jd51 (4.05%)
  Node jd64 (3.30%)
  Node jd59 (3.22%)
  Node jd31 (3.00%)
  Node jd55 (2.88%)
  
  
  ***************************
  Time-Step Critical Elements
  ***************************
  Link GQ73 (97.71%)
  
  
  ********************************
  Highest Flow Instability Indexes
  ********************************
  Link GQ67 (25)
  Link GQ29 (14)
  Link GQ114 (7)
  Link GQ121 (7)
  Link GQ44 (5)
  
  
  *************************
  Routing Time Step Summary
  *************************
  Minimum Time Step           :     2.94 sec
  Average Time Step           :     8.24 sec
  Maximum Time Step           :    30.00 sec
  Percent in Steady State     :    -0.00
  Average Iterations per Step :     3.93
  Percent Not Converging      :    13.06
  
  
  ***************************
  Subcatchment Runoff Summary
  ***************************
  
  ------------------------------------------------------------------------------------------------------------------------------
                            Total      Total      Total      Total     Imperv       Perv      Total       Total     Peak  Runoff
                           Precip      Runon       Evap      Infil     Runoff     Runoff     Runoff      Runoff   Runoff   Coeff
  Subcatchment                 mm         mm         mm         mm         mm         mm         mm    10^6 ltr      CMS
  ------------------------------------------------------------------------------------------------------------------------------
  1                         50.60       0.00       0.90      28.35      20.29       0.00      20.29        8.03     0.71   0.401
  2                         50.60       0.00       1.62      10.77      35.85       0.00      35.85       32.42     2.87   0.709
  3                         50.60       0.00       1.68       9.23      37.50       0.00      37.50       15.01     1.33   0.741
  4                         50.60       0.00       1.73       7.93      38.84       0.00      38.84        3.26     0.29   0.768
  5                         50.60       0.00       1.53      12.89      34.33       0.00      34.33        4.25     0.38   0.679
  6                         50.60       0.00       1.47      14.50      32.92       0.00      32.92        3.06     0.27   0.651
  7                         50.60       0.00       1.53      12.95      34.01       0.00      34.01       14.83     1.32   0.672
  8                         50.60       0.00       1.94       2.83      43.26       0.00      43.26        6.02     0.54   0.855
  9                         50.60       0.00       2.00       1.41      44.60       0.00      44.60        5.22     0.46   0.882
  10                        50.60       0.00       1.72       8.23      38.44       0.00      38.44        8.66     0.77   0.760
  11                        50.60       0.00       1.86       4.84      41.40       0.00      41.40       20.52     1.82   0.818
  12                        50.60       0.00       1.46      14.55      32.70       0.00      32.70       15.96     1.42   0.646
  13                        50.60       0.00       1.83       5.46      40.86       0.00      40.86       18.48     1.64   0.808
  14                        50.60       0.00       1.83       5.52      40.93       0.00      40.93        7.72     0.68   0.809
  15                        50.60       0.00       1.69       8.90      37.80       0.00      37.80       12.78     1.13   0.747
  16                        50.60       0.00       1.76       7.35      39.16       0.00      39.16       11.57     1.03   0.774
  17                        50.60       0.00       1.65      10.10      36.71       0.00      36.71       15.36     1.36   0.725
  18                        50.60       0.00       1.89       3.98      42.17       0.00      42.17       17.41     1.55   0.833
  19                        50.60       0.00       1.89       4.16      41.98       0.00      41.98        9.44     0.84   0.830
  20                        50.60       0.00       1.88       4.44      41.56       0.00      41.56       22.30     1.98   0.821
  21                        50.60       0.00       2.00       1.49      44.40       0.00      44.40       13.93     1.24   0.878
  22                        50.60       0.00       1.96       2.39      43.55       0.00      43.55        5.36     0.48   0.861
  23                        50.60       0.00       1.80       6.19      40.11       0.00      40.11       22.96     2.04   0.793
  24                        50.60       0.00       1.74       7.73      38.70       0.00      38.70        6.86     0.61   0.765
  25                        50.60       0.00       1.86       4.75      41.58       0.00      41.58        8.42     0.75   0.822
  26                        50.60       0.00       1.59      11.54      35.20       0.00      35.20       12.35     1.10   0.696
  27                        50.60       0.00       1.90       3.79      42.15       0.00      42.15       17.81     1.58   0.833
  28                        50.60       0.00       1.94       2.79      43.14       0.00      43.14       20.39     1.81   0.852
  29                        50.60       0.00       1.74       7.85      38.82       0.00      38.82        9.06     0.80   0.767
  30                        50.60       0.00       1.99       1.71      44.48       0.00      44.48        3.19     0.28   0.879
  31                        50.60       0.00       2.01       1.06      44.83       0.00      44.83        9.88     0.88   0.886
  32                        50.60       0.00       1.96       2.25      43.72       0.00      43.72       18.89     1.68   0.864
  33                        50.60       0.00       1.99       1.65      44.22       0.00      44.22       15.58     1.39   0.874
  34                        50.60       0.00       1.85       5.12      41.16       0.00      41.16       12.07     1.07   0.813
  35                        50.60       0.00       1.90       3.82      42.32       0.00      42.32       17.55     1.56   0.836
  36                        50.60       0.00       1.57      12.05      34.99       0.00      34.99       13.77     1.22   0.691
  37                        50.60       0.00       1.94       2.73      43.29       0.00      43.29        9.61     0.85   0.856
  38                        50.60       0.00       1.82       5.73      40.64       0.00      40.64       15.50     1.38   0.803
  39                        50.60       0.00       1.65      10.06      36.77       0.00      36.77       15.53     1.38   0.727
  40                        50.60       0.00       1.83       5.47      40.86       0.00      40.86        9.34     0.83   0.807
  41                        50.60       0.00       1.87       4.45      41.87       0.00      41.87        8.26     0.73   0.827
  42                        50.60       0.00       1.87       4.50      41.56       0.00      41.56       10.26     0.91   0.821
  43                        50.60       0.00       1.58      11.83      35.03       0.00      35.03       27.69     2.45   0.692
  44                        50.60       0.00       1.68       9.22      37.36       0.00      37.36       18.06     1.60   0.738
  45                        50.60       0.00       1.58      11.74      35.17       0.00      35.17       25.45     2.26   0.695
  46                        50.60       0.00       1.52      13.08      34.12       0.00      34.12       17.06     1.51   0.674
  47                        50.60       0.00       1.60      11.19      35.65       0.00      35.65       41.57     3.69   0.705
  48                        50.60       0.00       1.91       3.50      42.38       0.00      42.38       24.59     2.18   0.837
  49                        50.60       0.00       1.75       7.49      38.81       0.00      38.81       26.27     2.33   0.767
  50                        50.60       0.00       1.94       2.85      42.81       0.00      42.81       16.82     1.49   0.846
  51                        50.60       0.00       1.86       4.92      41.01       0.00      41.01        7.67     0.68   0.810
  52                        50.60       0.00       0.90      28.39      20.31       0.00      20.31       20.84     1.84   0.401
  53                        50.60       0.00       1.31      18.43      29.30       0.00      29.30       31.20     2.76   0.579
  54                        50.60       0.00       1.61      10.90      36.00       0.00      36.00        8.78     0.78   0.711
  55                        50.60       0.00       0.92      27.87      20.77       0.00      20.77       16.39     1.44   0.411
  56                        50.60       0.00       0.35      42.03       7.93       0.00       7.93        6.46     0.56   0.157
  57                        50.60       0.00       1.83       5.63      40.48       0.00      40.48       33.63     2.98   0.800
  58                        50.60       0.00       1.69       8.94      37.76       0.00      37.76        6.22     0.55   0.746
  59                        50.60       0.00       1.65       9.93      37.02       0.00      37.02        4.71     0.42   0.732
  60                        50.60       0.00       0.62      35.36      14.00       0.00      14.00        4.01     0.35   0.277
  61                        50.60       0.00       0.96      26.90      21.55       0.00      21.55        8.12     0.72   0.426
  62                        50.60       0.00       1.34      17.61      29.86       0.00      29.86       34.99     3.10   0.590
  63                        50.60       0.00       1.83       5.58      40.42       0.00      40.42       78.17     6.91   0.799
  64                        50.60       0.00       1.36      17.01      30.54       0.00      30.54        6.56     0.58   0.603
  65                        50.60       0.00       1.86       4.94      41.03       0.00      41.03       27.59     2.44   0.811
  66                        50.60       0.00       1.46      14.64      32.49       0.00      32.49        8.28     0.73   0.642
  67                        50.60       0.00       1.37      16.99      30.61       0.00      30.61        9.90     0.87   0.605
  68                        50.60       0.00       1.64      10.28      36.60       0.00      36.60        4.07     0.36   0.723
  69                        50.60       0.00       0.96      26.93      21.71       0.00      21.71        6.95     0.61   0.429
  70                        50.60       0.00       1.35      17.29      30.20       0.00      30.20       24.84     2.20   0.597
  71                        50.60       0.00       1.67       9.46      37.33       0.00      37.33        4.58     0.41   0.738
  72                        50.60       0.00       1.76       7.22      39.35       0.00      39.35        4.90     0.43   0.778
  73                        50.60       0.00       1.60      11.30      35.76       0.00      35.76        5.94     0.53   0.707
  74                        50.60       0.00       1.52      13.14      34.07       0.00      34.07        7.33     0.65   0.673
  75                        50.60       0.00       1.69       8.96      37.80       0.00      37.80        5.45     0.48   0.747
  76                        50.60       0.00       1.78       6.80      39.79       0.00      39.79        3.85     0.34   0.786
  77                        50.60       0.00       1.90       3.89      42.31       0.00      42.31        4.58     0.41   0.836
  78                        50.60       0.00       1.83       5.54      40.80       0.00      40.80        4.48     0.40   0.806
  79                        50.60       0.00       0.80      30.83      18.10       0.00      18.10       19.19     1.69   0.358
  80                        50.60       0.00       1.51      13.35      33.67       0.00      33.67       21.08     1.87   0.665
  81                        50.60       0.00       1.54      12.76      34.18       0.00      34.18       14.90     1.32   0.676
  82                        50.60       0.00       1.47      14.37      32.75       0.00      32.75       30.03     2.66   0.647
  83                        50.60       0.00       1.84       5.31      41.09       0.00      41.09        5.02     0.45   0.812
  84                        50.60       0.00       1.74       7.86      38.72       0.00      38.72        4.62     0.41   0.765
  85                        50.60       0.00       2.04       0.38      45.58       0.00      45.58        4.24     0.38   0.901
  86                        50.60       0.00       1.88       4.27      41.98       0.00      41.98        6.18     0.55   0.830
  87                        50.60       0.00       2.01       1.08      44.76       0.00      44.76        5.89     0.52   0.885
  88                        50.60       0.00       1.80       6.31      40.20       0.00      40.20        3.85     0.34   0.794
  89                        50.60       0.00       1.89       4.07      42.20       0.00      42.20        8.13     0.72   0.834
  90                        50.60       0.00       2.06       0.01      46.01       0.00      46.01        0.53     0.05   0.909
  91                        50.60       0.00       1.71       8.48      37.94       0.00      37.94        8.27     0.73   0.750
  92                        50.60       0.00       1.90       3.94      42.28       0.00      42.28        5.29     0.47   0.836
  93                        50.60       0.00       1.55      12.57      34.46       0.00      34.46       17.64     1.56   0.681
  94                        50.60       0.00       1.39      16.39      31.26       0.00      31.26        2.19     0.19   0.618
  95                        50.60       0.00       2.05       0.06      45.86       0.00      45.86        1.00     0.09   0.906
  96                        50.60       0.00       1.66       9.80      37.06       0.00      37.06        4.53     0.40   0.732
  97                        50.60       0.00       2.01       1.07      44.89       0.00      44.89        4.46     0.40   0.887
  98                        50.60       0.00       1.67       9.56      37.30       0.00      37.30        4.60     0.41   0.737
  99                        50.60       0.00       0.83      30.27      18.64       0.00      18.64        6.92     0.61   0.368
  100                       50.60       0.00       0.92      28.00      20.71       0.00      20.71        5.31     0.47   0.409
  101                       50.60       0.00       0.94      27.45      21.16       0.00      21.16       10.37     0.91   0.418
  102                       50.60       0.00       1.53      12.87      34.24       0.00      34.24        8.35     0.74   0.677
  103                       50.60       0.00       0.51      37.99      11.64       0.00      11.64        4.23     0.37   0.230
  104                       50.60       0.00       0.35      42.07       7.86       0.00       7.86        7.62     0.67   0.155
  105                       50.60       0.00       1.69       8.99      37.82       0.00      37.82        4.95     0.44   0.747
  106                       50.60       0.00       0.92      28.06      20.63       0.00      20.63        5.03     0.44   0.408
  
  
  ******************
  Node Depth Summary
  ******************
  
  ---------------------------------------------------------------------------------
                                 Average  Maximum  Maximum  Time of Max    Reported
                                   Depth    Depth      HGL   Occurrence   Max Depth
  Node                 Type       Meters   Meters   Meters  days hr:min      Meters
  ---------------------------------------------------------------------------------
  jd1                  JUNCTION     0.11     0.22   273.22     0  05:42        0.22
  jd2                  JUNCTION     0.52     3.00   270.00     0  05:20        3.00
  jd3                  JUNCTION     2.77     3.00   266.00     0  03:28        3.00
  jd4                  JUNCTION     1.30     3.00   270.00     0  05:09        3.00
  jd5                  JUNCTION     0.08     0.16   274.16     0  06:00        0.16
  jd6                  JUNCTION     0.09     0.20   275.20     0  06:00        0.20
  jd7                  JUNCTION     0.31     0.54   264.64     0  06:00        0.54
  jd8                  JUNCTION     1.79     3.00   267.00     0  05:01        3.00
  jd9                  JUNCTION     1.39     3.00   268.00     0  05:01        3.00
  jd10                 JUNCTION     2.78     3.00   273.00     0  03:25        3.00
  jd11                 JUNCTION     0.08     0.18   282.18     0  06:00        0.18
  jd12                 JUNCTION     2.82     3.00   272.00     0  02:51        3.00
  jd13                 JUNCTION     0.10     0.23   289.23     0  06:00        0.23
  jd14                 JUNCTION     0.43     3.00   283.00     0  05:20        3.00
  jd15                 JUNCTION     0.24     0.59   278.59     0  06:00        0.59
  jd16                 JUNCTION     0.26     0.63   274.63     0  06:00        0.63
  jd17                 JUNCTION     2.33     3.00   278.80     0  04:41        3.00
  jd18                 JUNCTION     0.45     3.00   282.00     0  05:25        3.00
  jd19                 JUNCTION     0.99     3.00   270.00     0  05:06        3.00
  jd20                 JUNCTION     0.19     0.35   273.35     0  06:00        0.35
  jd21                 JUNCTION     2.76     3.00   273.00     0  04:35        3.00
  jd22                 JUNCTION     1.55     3.00   275.00     0  05:07        3.00
  jd23                 JUNCTION     0.21     0.69   278.69     0  06:00        0.69
  jd24                 JUNCTION     0.12     0.26   285.26     0  06:00        0.26
  jd25                 JUNCTION     0.20     0.50   279.50     0  06:00        0.50
  jd26                 JUNCTION     0.46     3.00   288.00     0  05:19        3.00
  jd27                 JUNCTION     0.19     0.45   291.45     0  06:00        0.45
  jd28                 JUNCTION     2.86     3.00   290.00     0  02:23        3.00
  jd29                 JUNCTION     0.08     0.18   299.18     0  06:00        0.18
  jd30                 JUNCTION     0.11     0.25   290.25     0  06:00        0.25
  jd31                 JUNCTION     0.99     2.14   274.14     0  04:35        1.69
  jd32                 JUNCTION     2.85     3.00   275.00     0  02:31        3.00
  jd33                 JUNCTION     0.16     0.38   289.38     0  06:00        0.38
  jd34                 JUNCTION     0.22     3.00   297.00     0  05:42        1.27
  jd35                 JUNCTION     2.89     3.00   292.00     0  02:03        3.00
  jd36                 JUNCTION     0.57     3.00   302.00     0  05:16        3.00
  jd37                 JUNCTION     0.55     3.00   306.00     0  05:14        3.00
  jd38                 JUNCTION     0.34     0.95   297.95     0  06:00        0.95
  jd39                 JUNCTION     2.78     3.00   297.00     0  03:25        3.00
  jd40                 JUNCTION     0.87     3.00   302.00     0  05:12        3.00
  jd41                 JUNCTION     2.67     3.00   296.00     0  04:51        3.00
  jd42                 JUNCTION     0.17     0.39   305.39     0  06:00        0.39
  jd43                 JUNCTION     0.85     3.00   300.00     0  05:10        3.00
  jd44                 JUNCTION     0.86     3.00   286.00     0  05:13        3.00
  jd45                 JUNCTION     2.83     3.00   282.00     0  02:47        3.00
  jd46                 JUNCTION     0.24     0.63   275.63     0  06:01        0.63
  jd47                 JUNCTION     0.14     0.29   315.29     0  06:00        0.29
  jd48                 JUNCTION     0.09     0.21   325.21     0  06:00        0.21
  jd49                 JUNCTION     0.22     0.53   289.53     0  06:00        0.53
  jd50                 JUNCTION     2.87     3.00   278.00     0  02:17        3.00
  jd51                 JUNCTION     2.64     3.00   313.00     0  04:58        3.00
  jd52                 JUNCTION     0.50     3.00   326.00     0  05:21        2.01
  jd53                 JUNCTION     0.61     3.00   325.00     0  05:19        3.00
  jd54                 JUNCTION     0.25     0.55   326.55     0  06:00        0.55
  jd55                 JUNCTION     1.46     3.00   325.00     0  05:06        3.00
  jd56                 JUNCTION     0.16     0.39   327.39     0  06:00        0.39
  jd59                 JUNCTION     2.61     3.00   320.80     0  05:04        3.00
  jd60                 JUNCTION     2.82     3.00   319.00     0  02:49        3.00
  jd61                 JUNCTION     0.12     0.27   329.27     0  06:00        0.27
  jd62                 JUNCTION     0.06     0.12   335.12     0  06:00        0.12
  jd63                 JUNCTION     0.06     0.13   324.13     0  06:00        0.13
  jd64                 JUNCTION     2.43     3.00   321.00     0  05:04        2.90
  jd65                 JUNCTION     1.81     3.00   307.00     0  05:02        3.00
  jd66                 JUNCTION     2.74     3.00   304.00     0  04:01        3.00
  jd69                 JUNCTION     0.20     0.46   333.46     0  06:00        0.46
  jd79                 JUNCTION     2.80     3.00   274.00     0  02:32        3.00
  jd80                 JUNCTION     2.42     3.00   279.00     0  04:35        3.00
  jd81                 JUNCTION     0.13     0.29   288.29     0  06:00        0.29
  jd83                 JUNCTION     2.89     3.00   323.00     0  02:01        3.00
  jd84                 JUNCTION     0.39     3.00   326.00     0  05:19        2.97
  jd85                 JUNCTION     2.74     3.00   324.00     0  03:57        3.00
  jd87                 JUNCTION     2.80     3.00   322.00     0  03:06        3.00
  jd89                 JUNCTION     0.14     0.31   324.31     0  06:00        0.31
  jd90                 JUNCTION     0.12     0.27   328.27     0  06:00        0.27
  jd92                 JUNCTION     0.12     0.27   326.27     0  06:00        0.27
  jd93                 JUNCTION     0.62     3.00   327.00     0  05:17        3.00
  jd94                 JUNCTION     0.34     3.00   329.20     0  05:25        1.98
  jd95                 JUNCTION     0.40     3.00   330.00     0  05:26        2.27
  jd96                 JUNCTION     2.80     3.00   308.00     0  03:14        3.00
  jd97                 JUNCTION     0.41     3.00   330.20     0  05:26        2.37
  jd98                 JUNCTION     0.16     0.38   329.38     0  06:00        0.38
  jd99                 JUNCTION     2.74     3.00   327.00     0  03:54        3.00
  jd101                JUNCTION     0.10     0.21   321.21     0  06:00        0.21
  jd102                JUNCTION     0.20     0.51   324.51     0  06:00        0.51
  jd103                JUNCTION     0.10     0.21   318.21     0  06:00        0.21
  jd106                JUNCTION     2.67     3.00   287.00     0  04:37        3.00
  jd107                JUNCTION     0.18     0.40   332.40     0  06:00        0.40
  jd108                JUNCTION     1.14     1.49   327.49     0  05:42        1.49
  jd109                JUNCTION     0.14     0.32   343.32     0  06:00        0.32
  jd110                JUNCTION     2.73     3.00   327.00     0  04:10        3.00
  jd111                JUNCTION     0.06     0.13   344.13     0  06:00        0.13
  jd112                JUNCTION     0.08     0.17   334.17     0  06:00        0.17
  jd113                JUNCTION     0.09     0.19   348.19     0  06:00        0.19
  jd114                JUNCTION     2.82     3.00   317.00     0  03:29        3.00
  jd117                JUNCTION     1.18     2.81   318.81     0  06:00        2.81
  jd118                JUNCTION     0.08     0.17   330.17     0  06:00        0.17
  jd120                JUNCTION     0.14     0.34   327.34     0  06:00        0.34
  jd121                JUNCTION     0.14     0.32   320.32     0  06:00        0.32
  jd122                JUNCTION     2.78     3.00   276.00     0  03:30        3.00
  jd123                JUNCTION     2.76     3.00   276.20     0  03:30        3.00
  jd124                JUNCTION     2.91     3.00   271.00     0  01:46        3.00
  jd125                JUNCTION     1.10     3.00   278.00     0  05:09        3.00
  jd126                JUNCTION     2.89     3.00   275.00     0  02:01        3.00
  jd135                JUNCTION     0.12     0.27   289.27     0  06:00        0.27
  jd136                JUNCTION     0.23     0.53   341.53     0  06:00        0.53
  psk1                 OUTFALL      0.08     0.17   279.17     0  06:00        0.17
  psk2                 OUTFALL      0.11     0.25   270.25     0  06:00        0.25
  psk3                 OUTFALL      0.26     0.63   271.63     0  06:00        0.63
  psk4                 OUTFALL      0.00     0.00   280.00     0  00:00        0.00
  psk5                 OUTFALL      0.11     0.22   263.22     0  05:42        0.22
  psk6                 OUTFALL      0.08     0.16   259.16     0  06:00        0.16
  psk7                 OUTFALL      0.31     0.54   262.54     0  06:00        0.54
  psk8                 OUTFALL      0.00     0.00   317.00     0  00:00        0.00
  
  
  *******************
  Node Inflow Summary
  *******************
  
  -------------------------------------------------------------------------------------------------
                                  Maximum  Maximum                  Lateral       Total        Flow
                                  Lateral    Total  Time of Max      Inflow      Inflow     Balance
                                   Inflow   Inflow   Occurrence      Volume      Volume       Error
  Node                 Type           CMS      CMS  days hr:min    10^6 ltr    10^6 ltr     Percent
  -------------------------------------------------------------------------------------------------
  jd1                  JUNCTION     0.709    1.049     0  05:41        8.02        12.9       0.170
  jd2                  JUNCTION     1.095    1.462     0  06:00        12.3        16.9       0.263
  jd3                  JUNCTION     1.315    3.034     0  06:00        14.8        46.1       0.876
  jd4                  JUNCTION     1.582    1.761     0  06:00        17.8        19.9       0.288
  jd5                  JUNCTION     0.463    0.766     0  06:00        5.21        9.04       0.077
  jd6                  JUNCTION     0.535    0.535     0  06:00        6.02        6.02       0.107
  jd7                  JUNCTION     0.270    2.397     0  06:00        3.06        44.9       0.161
  jd8                  JUNCTION     0.376    1.321     0  06:00        4.24        31.5       0.755
  jd9                  JUNCTION     0.288    1.356     0  06:00        3.26        29.2       0.247
  jd10                 JUNCTION     0.768    0.973     0  06:00        8.65          11       0.927
  jd11                 JUNCTION     1.134    1.134     0  06:00        12.8        12.8       0.133
  jd12                 JUNCTION     0.854    1.875     0  06:00         9.6        20.8       0.666
  jd13                 JUNCTION     1.547    1.547     0  06:00        17.4        17.4       0.110
  jd14                 JUNCTION     1.813    2.048     0  06:00        20.4        22.9       0.182
  jd15                 JUNCTION     0.747    1.738     0  05:43        8.41        18.7       0.475
  jd16                 JUNCTION     0.804    3.308     0  06:00        9.05        35.3       0.195
  jd17                 JUNCTION     1.679    3.568     0  06:00        18.9        49.9       1.613
  jd18                 JUNCTION     1.332    1.944     0  06:00          15        21.8       0.275
  jd19                 JUNCTION     1.237    2.217     0  06:00        13.9        29.6       0.191
  jd20                 JUNCTION     1.027    1.274     0  06:00        11.6        21.5       0.326
  jd21                 JUNCTION     0.476    2.849     0  06:00        5.35        43.3       0.785
  jd22                 JUNCTION     0.839    1.623     0  05:30        9.43        20.6       0.401
  jd23                 JUNCTION     0.830    2.477     0  06:00        9.33        26.3       0.154
  jd24                 JUNCTION     1.363    1.363     0  06:00        15.3        15.3       0.130
  jd25                 JUNCTION     1.072    1.560     0  06:00        12.1        17.4       0.214
  jd26                 JUNCTION     1.560    2.472     0  06:00        17.5          29       0.193
  jd27                 JUNCTION     1.604    2.293     0  06:00          18        29.3       0.189
  jd28                 JUNCTION     2.183    2.816     0  06:00        24.6          34       0.397
  jd29                 JUNCTION     0.878    0.878     0  06:00        9.87        9.87       0.082
  jd30                 JUNCTION     0.912    2.776     0  06:00        10.3        29.4       0.113
  jd31                 JUNCTION     0.610    1.256     0  06:00        6.86        14.8       3.089
  jd32                 JUNCTION     1.239    4.243     0  06:00        13.9        57.9       0.433
  jd33                 JUNCTION     1.220    2.126     0  06:00        13.8        23.2       0.117
  jd34                 JUNCTION     1.510    1.510     0  06:00          17          17       0.093
  jd35                 JUNCTION     1.378    3.416     0  06:00        15.5        50.5       0.262
  jd36                 JUNCTION     2.331    3.315     0  06:00        26.2        41.8       0.206
  jd37                 JUNCTION     2.454    2.454     0  06:00        27.7        27.7       0.156
  jd38                 JUNCTION     2.257    3.192     0  06:00        25.4        40.8       0.299
  jd39                 JUNCTION     1.565    4.217     0  06:00        17.6        70.5       0.731
  jd40                 JUNCTION     2.663    4.852     0  06:00          30        68.9       0.281
  jd41                 JUNCTION     1.872    6.115     0  06:00        21.1        83.2       2.625
  jd42                 JUNCTION     2.445    2.681     0  06:00        27.6        30.3       0.224
  jd43                 JUNCTION     2.758    4.742     0  06:00        31.2        54.1       0.324
  jd44                 JUNCTION     3.688    6.304     0  06:00        41.5        94.6       0.280
  jd45                 JUNCTION     1.486    3.711     0  06:00        16.8        60.9       0.535
  jd46                 JUNCTION     0.679    0.679     0  06:00        7.67        7.67       0.727
  jd47                 JUNCTION     2.203    2.203     0  06:00        24.8        24.8       0.158
  jd48                 JUNCTION     0.610    0.610     0  06:00        6.94        6.94       0.126
  jd49                 JUNCTION     2.984    2.984     0  06:00        33.6        33.6       0.183
  jd50                 JUNCTION     3.101    6.388     0  06:00          35         103       0.423
  jd51                 JUNCTION     0.649    2.986     0  06:00        7.33        33.7       4.221
  jd52                 JUNCTION     1.322    4.554     0  05:21        14.9        51.1       0.275
  jd53                 JUNCTION     0.734    2.890     0  05:19        8.26        41.9       0.141
  jd54                 JUNCTION     0.396    1.968     0  06:00        4.45        22.2       0.214
  jd55                 JUNCTION     0.721    2.812     0  06:00        8.12        27.5       2.971
  jd56                 JUNCTION     0.438    1.283     0  06:00        4.94        14.4       0.188
  jd59                 JUNCTION     0.435    2.158     0  06:00         4.9        23.9       3.327
  jd60                 JUNCTION     0.779    1.652     0  06:00        8.77        18.7       0.695
  jd61                 JUNCTION     0.874    0.982     0  06:00        9.89        11.1       0.135
  jd62                 JUNCTION     0.352    0.352     0  06:00           4           4       0.054
  jd63                 JUNCTION     0.483    0.483     0  06:00        5.44        5.44       0.098
  jd64                 JUNCTION     0.407    1.004     0  06:00        4.57        11.3       3.412
  jd65                 JUNCTION     6.913    6.913     0  06:00        78.1        78.1       0.125
  jd66                 JUNCTION     0.913    2.647     0  06:00        10.4          30       1.072
  jd69                 JUNCTION     1.688    1.735     0  06:00        19.2        19.7       0.183
  jd79                 JUNCTION     1.642    2.558     0  06:00        18.5          32       0.550
  jd80                 JUNCTION     1.824    2.431     0  06:00        20.5        27.8       0.537
  jd81                 JUNCTION     1.385    1.385     0  06:00        15.6        15.6       0.049
  jd83                 JUNCTION     1.445    2.020     0  06:00        16.4        22.2       0.388
  jd84                 JUNCTION     1.836    1.836     0  06:00        20.8        20.8       0.126
  jd85                 JUNCTION     0.417    0.683     0  06:00        4.71        7.74       1.118
  jd87                 JUNCTION     0.342    0.824     0  06:00        3.85         9.3       0.804
  jd89                 JUNCTION     0.398    0.398     0  06:00        4.48        4.48       0.199
  jd90                 JUNCTION     0.406    0.406     0  06:00        4.57        4.57       0.145
  jd92                 JUNCTION     0.341    0.341     0  06:00        3.85        3.85       0.108
  jd93                 JUNCTION     0.734    1.589     0  06:00        8.27        17.9       0.219
  jd94                 JUNCTION     0.047    0.855     0  06:00       0.527         9.6       0.194
  jd95                 JUNCTION     0.089    0.808     0  06:00           1         9.1       0.289
  jd96                 JUNCTION     0.666    0.888     0  06:00        7.61        10.1       0.965
  jd97                 JUNCTION     0.719    0.719     0  06:00        8.11        8.11       0.074
  jd98                 JUNCTION     0.401    0.401     0  06:00        4.52        4.52       0.111
  jd99                 JUNCTION     0.193    0.462     0  06:00        2.19        6.94       0.829
  jd101                JUNCTION     0.526    1.049     0  06:00        5.93        11.8       0.118
  jd102                JUNCTION     0.524    0.524     0  06:00        5.88        5.88       0.157
  jd103                JUNCTION     0.361    0.361     0  06:00        4.06        4.06       0.059
  jd106                JUNCTION     0.282    1.670     0  06:00        3.19        18.5       2.122
  jd107                JUNCTION     0.407    1.339     0  06:00        4.59        15.1       0.202
  jd108                JUNCTION     0.443    0.443     0  06:00        5.03        5.05       1.305
  jd109                JUNCTION     0.740    0.740     0  06:00        8.34        8.34       0.049
  jd110                JUNCTION     0.563    0.838     0  06:00        6.45        9.59       1.598
  jd111                JUNCTION     0.467    0.467     0  06:00        5.31        5.31       0.099
  jd112                JUNCTION     0.549    1.526     0  06:00        6.18        17.3       0.085
  jd113                JUNCTION     0.369    0.369     0  06:00        4.23        4.23       0.022
  jd114                JUNCTION     0.446    4.091     0  06:00        5.02          61       0.526
  jd117                JUNCTION     0.410    1.343     0  06:00        4.62        15.3       1.039
  jd118                JUNCTION     0.376    0.376     0  06:00        4.23        4.23       0.031
  jd120                JUNCTION     0.469    0.469     0  06:00        5.28        5.28       0.097
  jd121                JUNCTION     0.580    0.580     0  06:00        6.55        6.55       0.120
  jd122                JUNCTION     1.377    4.974     0  06:00        15.5        68.1       0.831
  jd123                JUNCTION     1.415    3.752     0  06:00        15.9        70.3       1.011
  jd124                JUNCTION     2.040    3.113     0  06:00        22.9        55.2       0.108
  jd125                JUNCTION     1.980    3.655     0  06:00        22.3        65.4       0.127
  jd126                JUNCTION     2.872    3.734     0  06:00        32.4        44.7       0.230
  jd135                JUNCTION     0.733    0.733     0  06:00        8.25        8.25       0.080
  jd136                JUNCTION     0.608    0.977     0  06:00        6.91        11.1       0.204
  psk1                 OUTFALL      0.000    0.736     0  06:00           0        8.23       0.000
  psk2                 OUTFALL      0.000    2.107     0  06:00           0        21.8       0.000
  psk3                 OUTFALL      0.000    3.307     0  06:00           0        35.2       0.000
  psk4                 OUTFALL      0.000    0.000     0  00:00           0           0       0.000 ltr
  psk5                 OUTFALL      0.000    0.681     0  05:42           0        8.36       0.000
  psk6                 OUTFALL      0.000    0.588     0  06:00           0        6.92       0.000
  psk7                 OUTFALL      0.000    2.397     0  06:00           0        44.8       0.000
  psk8                 OUTFALL      0.000    0.000     0  00:00           0           0       0.000 ltr
  
  
  **********************
  Node Surcharge Summary
  **********************
  
  Surcharging occurs when water rises above the top of the highest conduit.
  ---------------------------------------------------------------------
                                               Max. Height   Min. Depth
                                   Hours       Above Crown    Below Rim
  Node                 Type      Surcharged         Meters       Meters
  ---------------------------------------------------------------------
  jd2                  JUNCTION        0.98          2.200        0.000
  jd3                  JUNCTION       13.55          2.200        0.000
  jd4                  JUNCTION        4.69          2.200        0.000
  jd8                  JUNCTION       12.37          2.200        0.000
  jd9                  JUNCTION        6.80          2.200        0.000
  jd10                 JUNCTION       13.61          2.400        0.000
  jd12                 JUNCTION       14.17          2.400        0.000
  jd14                 JUNCTION        0.81          2.400        0.000
  jd17                 JUNCTION       12.32          2.200        0.000
  jd18                 JUNCTION        0.78          2.000        0.000
  jd19                 JUNCTION        4.02          2.200        0.000
  jd21                 JUNCTION       13.76          2.200        0.000
  jd22                 JUNCTION       12.51          2.400        0.000
  jd26                 JUNCTION        0.86          2.400        0.000
  jd28                 JUNCTION       14.61          2.400        0.000
  jd31                 JUNCTION       12.41          1.338        0.862
  jd32                 JUNCTION       14.48          2.200        0.000
  jd34                 JUNCTION        0.33          2.400        0.000
  jd35                 JUNCTION       14.96          2.400        0.000
  jd36                 JUNCTION        1.23          2.400        0.000
  jd37                 JUNCTION        1.11          2.400        0.000
  jd39                 JUNCTION       13.61          2.000        0.000
  jd40                 JUNCTION        2.19          2.200        0.000
  jd41                 JUNCTION       12.15          1.000        0.000
  jd43                 JUNCTION        1.92          2.200        0.000
  jd44                 JUNCTION        2.04          2.000        0.000
  jd45                 JUNCTION       14.22          2.000        0.000
  jd50                 JUNCTION       14.72          2.200        0.000
  jd51                 JUNCTION       12.03          1.350        0.000
  jd52                 JUNCTION        0.99          1.500        0.000
  jd53                 JUNCTION        1.15          1.800        0.000
  jd55                 JUNCTION        2.84          1.500        0.000
  jd59                 JUNCTION       11.93          1.500        0.000
  jd60                 JUNCTION       14.19          2.400        0.000
  jd64                 JUNCTION       11.95          1.800        0.000
  jd65                 JUNCTION        7.00          2.400        0.000
  jd66                 JUNCTION       13.03          2.200        0.000
  jd79                 JUNCTION       14.47          2.400        0.000
  jd80                 JUNCTION       12.41          2.400        0.000
  jd83                 JUNCTION       14.98          2.400        0.000
  jd84                 JUNCTION        0.74          2.400        0.000
  jd85                 JUNCTION       13.15          2.400        0.000
  jd87                 JUNCTION       13.93          2.400        0.000
  jd93                 JUNCTION        1.24          2.200        0.000
  jd94                 JUNCTION        0.82          2.200        0.000
  jd95                 JUNCTION        0.69          2.200        0.000
  jd96                 JUNCTION       13.80          2.200        0.000
  jd97                 JUNCTION        0.66          2.200        0.000
  jd99                 JUNCTION       13.16          2.400        0.000
  jd106                JUNCTION       12.37          2.000        0.000
  jd108                JUNCTION       13.95          0.491        1.509
  jd110                JUNCTION       12.84          2.000        0.000
  jd114                JUNCTION       14.25          2.000        0.000
  jd117                JUNCTION       13.52          2.005        0.195
  jd122                JUNCTION       13.77          2.200        0.000
  jd123                JUNCTION       13.51          2.200        0.000
  jd124                JUNCTION       15.23          2.400        0.000
  jd125                JUNCTION        4.22          2.200        0.000
  jd126                JUNCTION       14.98          2.400        0.000
  
  
  *********************
  Node Flooding Summary
  *********************
  
  Flooding refers to all water that overflows a node, whether it ponds or not.
  --------------------------------------------------------------------------
                                                             Total   Maximum
                                 Maximum   Time of Max       Flood    Ponded
                        Hours       Rate    Occurrence      Volume     Depth
  Node                 Flooded       CMS   days hr:min    10^6 ltr    Meters
  --------------------------------------------------------------------------
  jd2                     0.74     0.302      0  05:20       0.476     0.000
  jd3                    13.53     3.034      0  06:00      45.743     0.000
  jd4                     3.15     1.250      0  06:00       4.851     0.000
  jd8                     2.03     0.233      0  05:45       1.012     0.000
  jd9                     1.97     0.410      0  06:00       1.949     0.000
  jd10                   13.58     0.973      0  06:00      10.898     0.000
  jd12                   14.15     1.875      0  06:00      20.709     0.000
  jd14                    0.61     0.247      0  05:20       0.303     0.000
  jd17                    6.37     2.739      0  06:00      15.687     0.000
  jd18                    0.65     0.650      0  05:25       0.880     0.000
  jd19                    1.26     1.150      0  06:00       3.563     0.000
  jd21                   12.41     2.848      0  06:00      42.667     0.000
  jd22                    1.35     0.799      0  05:30       2.639     0.000
  jd26                    0.77     0.576      0  06:00       1.298     0.000
  jd28                   14.61     2.816      0  06:00      33.826     0.000
  jd32                   14.47     4.243      0  06:00      57.683     0.000
  jd34                    0.01     0.054      0  05:42       0.000     0.000
  jd35                   14.95     3.416      0  06:00      50.334     0.000
  jd36                    1.00     1.193      0  06:00       3.107     0.000
  jd37                    0.97     0.979      0  06:00       2.422     0.000
  jd39                   13.59     4.217      0  06:00      70.033     0.000
  jd40                    1.77     2.290      0  06:00       8.790     0.000
  jd41                   12.14     6.115      0  06:00      81.122     0.000
  jd43                    1.80     2.911      0  06:00       9.841     0.000
  jd44                    1.21     2.404      0  06:00       7.047     0.000
  jd45                   14.22     3.711      0  06:00      60.628     0.000
  jd50                   14.72     6.388      0  06:00     102.313     0.000
  jd51                   12.03     2.986      0  06:00      32.314     0.000
  jd52                    0.01     2.359      0  05:21       0.056     0.000
  jd53                    0.75     0.820      0  05:19       1.063     0.000
  jd55                    0.94     2.812      0  06:00       7.429     0.000
  jd59                   11.93     2.158      0  06:00      23.114     0.000
  jd60                   14.18     1.652      0  06:00      18.537     0.000
  jd64                    0.01     0.343      0  05:04       0.010     0.000
  jd65                    6.77     5.819      0  06:00      34.734     0.000
  jd66                   12.98     2.647      0  06:00      29.709     0.000
  jd79                   11.80     2.312      0  06:00      21.913     0.000
  jd80                    8.73     2.274      0  06:00      18.530     0.000
  jd83                   14.98     2.020      0  06:00      22.146     0.000
  jd84                    0.01     0.207      0  05:19       0.003     0.000
  jd85                   13.04     0.683      0  06:00       7.651     0.000
  jd87                   13.90     0.824      0  06:00       9.231     0.000
  jd93                    0.68     0.398      0  06:00       0.809     0.000
  jd94                    0.01     0.268      0  05:25       0.002     0.000
  jd95                    0.01     0.211      0  05:26       0.003     0.000
  jd96                   13.76     0.888      0  06:00      10.011     0.000
  jd97                    0.01     0.057      0  05:26       0.002     0.000
  jd99                   13.10     0.462      0  06:00       6.888     0.000
  jd106                  12.37     1.670      0  06:00      18.092     0.000
  jd110                  12.83     0.838      0  06:00       9.436     0.000
  jd114                  13.51     4.091      0  06:00      60.529     0.000
  jd122                  13.49     4.973      0  06:00      67.485     0.000
  jd123                  12.56     3.437      0  06:00      54.945     0.000
  jd124                  15.23     3.113      0  06:00      55.094     0.000
  jd125                   1.82     1.269      0  06:00       4.153     0.000
  jd126                  14.98     3.734      0  06:00      44.562     0.000
  
  
  ***********************
  Outfall Loading Summary
  ***********************
  
  -----------------------------------------------------------
                         Flow       Avg       Max       Total
                         Freq      Flow      Flow      Volume
  Outfall Node           Pcnt       CMS       CMS    10^6 ltr
  -----------------------------------------------------------
  psk1                  98.30     0.196     0.736       8.227
  psk2                  98.28     0.528     2.107      21.828
  psk3                  98.34     0.844     3.307      35.211
  psk4                   0.00     0.000     0.000       0.000
  psk5                  98.33     0.197     0.681       8.361
  psk6                  98.28     0.164     0.588       6.924
  psk7                  98.34     0.997     2.397      44.809
  psk8                   0.00     0.000     0.000       0.000
  -----------------------------------------------------------
  System                73.73     2.924     0.000     125.360
  
  
  ********************
  Link Flow Summary
  ********************
  
  -----------------------------------------------------------------------------
                                 Maximum  Time of Max   Maximum    Max/    Max/
                                  |Flow|   Occurrence   |Veloc|    Full    Full
  Link                 Type          CMS  days hr:min     m/sec    Flow   Depth
  -----------------------------------------------------------------------------
  GQ1                  CONDUIT     0.356     0  05:31      1.95    0.93    0.68
  GQ2                  CONDUIT     1.395     0  06:00      2.78    0.66    0.61
  GQ3                  CONDUIT     0.736     0  06:00      6.53    0.03    0.11
  GQ4                  CONDUIT     0.510     0  05:33      1.80    1.00    1.00
  GQ5                  CONDUIT     1.208     0  05:37      2.40    1.00    1.00
  GQ6                  CONDUIT     0.368     0  05:42      1.21    0.17    0.64
  GQ7                  CONDUIT     1.675     0  06:21      3.50    1.00    1.00
  GQ8                  CONDUIT     0.785     0  06:00      1.76    0.75    0.83
  GQ9                  CONDUIT     2.194     0  06:00      4.92    0.77    0.83
  GQ10                 CONDUIT     1.136     0  14:33      4.10    1.04    1.00
  GQ11                 CONDUIT     0.236     0  06:00      1.90    0.25    0.49
  GQ12                 CONDUIT     0.283     0  06:00      1.36    0.31    0.69
  GQ13                 CONDUIT     0.179     0  06:00      0.57    0.08    0.60
  GQ14                 CONDUIT     0.092     0  06:00      1.10    0.13    0.22
  GQ15                 CONDUIT     0.211     0  06:00      4.38    0.85    0.64
  GQ16                 CONDUIT     1.864     0  06:00      4.07    0.90    0.60
  GQ17                 CONDUIT     0.443     0  06:00      1.93    0.14    0.47
  GQ18                 CONDUIT     1.089     0  06:00      2.50    4.91    0.84
  GQ19                 CONDUIT     0.596     0  06:00      2.33    0.07    0.36
  GQ20                 CONDUIT     0.131     0  06:00      0.49    0.07    0.59
  GQ21                 CONDUIT     0.482     0  06:00      1.51    0.15    0.63
  GQ22                 CONDUIT     0.488     0  06:00      1.80    0.15    0.38
  GQ23                 CONDUIT     1.027     0  06:00      2.30    0.50    0.59
  GQ24                 CONDUIT     1.691     0  06:00      3.47    0.84    0.93
  GQ25                 CONDUIT     0.909     0  05:42      4.02    1.02    0.82
  GQ26                 CONDUIT     0.621     0  06:00      2.72    0.73    0.82
  GQ27                 CONDUIT     0.832     0  05:28      3.00    0.83    1.00
  GQ28                 CONDUIT     0.293     0  06:00      0.76    0.31    0.72
  GQ29                 CONDUIT     1.256     0  06:00      2.50    0.59    1.00
  GQ30                 CONDUIT     0.824     0  05:25      2.91    1.00    1.00
  GQ31                 CONDUIT     0.604     0  06:00      2.14    0.81    1.00
  GQ32                 CONDUIT     0.689     0  06:00      2.92    1.11    0.87
  GQ33                 CONDUIT     1.434     0  05:39      5.07    1.00    1.00
  GQ34                 CONDUIT     0.445     0  06:00      1.79    0.70    0.82
  GQ35                 CONDUIT     0.708     0  05:15      2.51    1.31    1.00
  GQ36                 CONDUIT     0.957     0  05:15      3.38    1.19    1.00
  GQ37                 CONDUIT     0.438     0  06:00      1.67    0.63    0.87
  GQ38                 CONDUIT     0.195     0  06:00      0.91    0.28    0.71
  GQ39                 CONDUIT     0.782     0  05:30      2.76    1.00    1.00
  GQ40                 CONDUIT     0.606     0  06:00      2.47    0.75    0.87
  GQ41                 CONDUIT     1.293     0  06:00      1.66    0.60    0.97
  GQ42                 CONDUIT     1.359     0  05:41      2.70    1.00    1.00
  GQ43                 CONDUIT     2.308     0  05:16      4.70    1.03    1.00
  GQ44                 CONDUIT     0.946     0  05:32      1.88    1.00    1.00
  GQ45                 CONDUIT     0.981     0  06:00      2.53    0.40    0.72
  GQ46                 CONDUIT     1.068     0  05:49      2.12    1.00    1.00
  GQ47                 CONDUIT     0.204     0  06:00      1.05    0.19    0.65
  GQ48                 CONDUIT     0.203     0  06:00      1.05    0.19    0.65
  GQ49                 CONDUIT     0.818     0  06:00      3.93    0.31    0.69
  GQ50                 CONDUIT     0.235     0  06:00      1.13    0.31    0.69
  GQ51                 CONDUIT     0.995     0  05:40      3.53    1.52    1.00
  GQ52                 CONDUIT     0.656     0  06:04      1.42    0.87    0.89
  GQ53                 CONDUIT     2.225     0  05:37      2.83    1.00    1.00
  GQ54                 CONDUIT     0.500     0  06:00      2.26    0.43    0.73
  GQ55                 CONDUIT     0.373     0  06:00      1.85    0.25    0.67
  GQ56                 CONDUIT     2.001     0  05:11      4.16    1.09    1.00
  GQ57                 CONDUIT     0.724     0  06:00      1.81    0.47    0.74
  GQ58                 CONDUIT     1.508     0  06:00      3.77    0.47    0.74
  GQ59                 CONDUIT     1.203     0  05:58      2.39    1.00    1.00
  GQ60                 CONDUIT     2.294     0  05:21      1.46    0.55    1.00
  GQ61                 CONDUIT     0.321     0  06:00      0.31    0.04    0.57
  GQ62                 CONDUIT     0.669     0  06:00      0.51    0.07    0.59
  GQ63                 CONDUIT     1.533     0  06:00      0.82    0.05    0.57
  GQ64                 CONDUIT     0.109     0  06:00      1.44    0.08    0.33
  GQ65                 CONDUIT     0.047     0  06:00      0.37    0.08    0.48
  GQ66                 CONDUIT     0.191     0  06:00      0.63    0.06    0.58
  GQ67                 CONDUIT     1.004     0  06:00      0.89    0.70    1.00
  GQ68                 CONDUIT     1.013     0  06:00      1.74    0.32    0.70
  GQ69                 CONDUIT     1.735     0  06:00      4.10    0.62    0.78
  GQ70                 CONDUIT     0.588     0  06:00      8.41    0.08    0.20
  GQ71                 CONDUIT     0.681     0  05:42      6.04    0.17    0.28
  GQ72                 CONDUIT     2.397     0  06:00      5.51    0.57    0.54
  GQ73                 CONDUIT     2.107     0  06:00     13.71    0.14    0.25
  GQ74                 CONDUIT     0.391     0  06:00      1.48    0.07    0.40
  GQ75                 CONDUIT     0.474     0  06:00      0.92    0.14    0.63
  GQ76                 CONDUIT     3.307     0  06:00      6.40    0.72    0.63
  GQ77                 CONDUIT     0.000     0  00:00      0.00    0.00    0.30
  GQ78                 CONDUIT     0.916     0  05:35      3.24    1.00    1.00
  GQ79                 CONDUIT     0.246     0  06:00      1.08    0.53    0.79
  GQ80                 CONDUIT     0.608     0  05:48      2.15    1.00    1.00
  GQ81                 CONDUIT     0.354     0  04:41      1.25    2.24    1.00
  GQ82                 CONDUIT     0.666     0  06:00      2.98    0.46    0.74
  GQ83                 CONDUIT     0.719     0  06:00      3.21    0.46    0.74
  GQ84                 CONDUIT     1.304     0  05:18      4.71    1.03    1.00
  GQ85                 CONDUIT     0.575     0  06:00      2.03    0.99    1.00
  GQ86                 CONDUIT     0.196     0  06:00      1.11    0.08    0.60
  GQ87                 CONDUIT     0.070     0  06:00      0.39    0.10    0.61
  GQ88                 CONDUIT     0.482     0  06:00      2.19    0.43    0.73
  GQ89                 CONDUIT     0.398     0  06:00      1.73    0.52    0.76
  GQ90                 CONDUIT     0.406     0  06:00      1.86    0.41    0.72
  GQ91                 CONDUIT     0.341     0  06:00      1.55    0.42    0.73
  GQ92                 CONDUIT     0.808     0  06:00      1.83    1.16    1.00
  GQ93                 CONDUIT     0.855     0  06:00      1.70    0.73    1.00
  GQ94                 CONDUIT     1.199     0  06:04      2.38    1.42    1.00
  GQ95                 CONDUIT     0.222     0  06:00      0.73    0.06    0.58
  GQ96                 CONDUIT     0.719     0  06:00      1.43    1.23    1.00
  GQ97                 CONDUIT     0.401     0  06:00      2.10    0.72    0.64
  GQ98                 CONDUIT     0.269     0  06:00      1.08    0.38    0.83
  GQ99                 CONDUIT     0.728     0  06:00      0.70    0.04    0.57
  GQ100                CONDUIT     0.523     0  06:00      3.02    0.90    0.60
  GQ101                CONDUIT     0.361     0  06:00      1.77    0.27    0.68
  GQ102                CONDUIT     1.505     0  06:00      3.79    0.46    0.74
  GQ103                CONDUIT     0.532     0  06:00      1.96    0.82    0.92
  GQ104                CONDUIT     1.246     0  06:00      4.75    0.90    0.87
  GQ105                CONDUIT     0.315     0  05:52      0.63    1.00    1.00
  GQ106                CONDUIT     0.393     0  06:00      1.81    0.39    0.72
  GQ107                CONDUIT     1.114     0  05:26      3.94    1.00    1.00
  GQ108                CONDUIT     0.829     0  05:53      1.65    1.00    1.00
  GQ109                CONDUIT     0.306     0  06:00      1.48    0.41    0.72
  GQ110                CONDUIT     0.487     0  06:00      1.01    0.07    0.59
  GQ111                CONDUIT     0.427     0  06:00      1.94    0.39    0.72
  GQ112                CONDUIT     1.339     0  06:00      3.22    0.24    0.40
  GQ113                CONDUIT     0.740     0  06:00      4.18    0.56    0.60
  GQ114                CONDUIT     0.443     0  06:00      0.76    0.18    0.70
  GQ115                CONDUIT     0.192     0  06:00      1.04    0.03    0.22
  GQ116                CONDUIT     0.275     0  06:00      0.60    0.04    0.57
  GQ117                CONDUIT     0.977     0  06:00      4.65    0.61    0.44
  GQ118                CONDUIT     0.369     0  06:00      2.08    0.13    0.45
  GQ119                CONDUIT     2.302     0  05:36      4.58    1.00    1.00
  GQ120                CONDUIT     0.000     0  00:00      0.00    0.00    0.50
  GQ121                CONDUIT     1.343     0  06:00      2.67    0.95    1.00
  GQ122                CONDUIT     0.557     0  06:00      1.74    0.10    0.61
  GQ123                CONDUIT     0.376     0  06:00      1.95    0.18    0.64
  GQ124                CONDUIT     0.233     0  06:00      1.09    0.10    0.45
  GQ125                CONDUIT     0.469     0  06:00      1.98    0.53    0.78
  GQ126                CONDUIT     0.579     0  06:00      2.50    0.55    0.77
  GQ127                CONDUIT     0.838     0  05:16      1.73    1.07    1.00
  GQ128                CONDUIT     1.968     0  06:00      2.65    0.43    0.73
  GQ129                CONDUIT     1.313     0  05:30      2.61    1.00    1.00
  GQ130                CONDUIT     1.073     0  05:32      3.79    1.00    1.00
  GQ131                CONDUIT     0.862     0  05:36      3.05    1.00    1.00
  
  
  ***************************
  Flow Classification Summary
  ***************************
  
  -------------------------------------------------------------------------------------
                      Adjusted    ---------- Fraction of Time in Flow Class ---------- 
                       /Actual         Up    Down  Sub   Sup   Up    Down  Norm  Inlet 
  Conduit               Length    Dry  Dry   Dry   Crit  Crit  Crit  Crit  Ltd   Ctrl  
  -------------------------------------------------------------------------------------
  GQ1                     1.00   0.02  0.00  0.00  0.08  0.91  0.00  0.00  0.00  0.00
  GQ2                     1.00   0.02  0.00  0.00  0.03  0.95  0.00  0.00  0.93  0.00
  GQ3                     1.00   0.02  0.00  0.00  0.00  0.98  0.00  0.00  0.37  0.00
  GQ4                     1.00   0.02  0.00  0.00  0.98  0.00  0.00  0.00  0.47  0.00
  GQ5                     1.00   0.02  0.00  0.00  0.98  0.00  0.00  0.00  0.84  0.00
  GQ6                     1.00   0.02  0.00  0.00  0.97  0.01  0.00  0.00  0.94  0.00
  GQ7                     1.00   0.02  0.00  0.00  0.23  0.75  0.00  0.00  0.12  0.00
  GQ8                     1.00   0.02  0.00  0.00  0.98  0.00  0.00  0.00  0.90  0.00
  GQ9                     1.00   0.02  0.00  0.00  0.78  0.21  0.00  0.00  0.94  0.00
  GQ10                    1.00   0.02  0.00  0.00  0.66  0.32  0.00  0.00  0.51  0.00
  GQ11                    1.00   0.02  0.00  0.00  0.10  0.88  0.00  0.00  0.93  0.00
  GQ12                    1.00   0.02  0.00  0.00  0.98  0.00  0.00  0.00  0.94  0.00
  GQ13                    1.00   0.02  0.00  0.00  0.98  0.00  0.00  0.00  0.94  0.00
  GQ14                    1.00   0.02  0.00  0.00  0.98  0.01  0.00  0.00  0.00  0.00
  GQ15                    1.00   0.02  0.00  0.00  0.00  0.98  0.00  0.00  0.01  0.00
  GQ16                    1.00   0.02  0.00  0.00  0.00  0.98  0.00  0.00  0.00  0.00
  GQ17                    1.00   0.02  0.00  0.00  0.84  0.15  0.00  0.00  0.94  0.00
  GQ18                    1.00   0.02  0.00  0.00  0.84  0.14  0.00  0.00  0.04  0.00
  GQ19                    1.00   0.02  0.00  0.00  0.74  0.24  0.00  0.00  0.94  0.00
  GQ20                    1.00   0.02  0.00  0.00  0.98  0.00  0.00  0.00  0.94  0.00
  GQ21                    1.00   0.02  0.00  0.00  0.41  0.58  0.00  0.00  0.94  0.00
  GQ22                    1.00   0.02  0.00  0.00  0.02  0.96  0.00  0.00  0.94  0.00
  GQ23                    1.00   0.02  0.00  0.00  0.05  0.94  0.00  0.00  0.12  0.00
  GQ24                    1.00   0.02  0.00  0.00  0.88  0.10  0.00  0.00  0.88  0.00
  GQ25                    1.00   0.02  0.00  0.00  0.00  0.98  0.00  0.00  0.01  0.00
  GQ26                    1.00   0.02  0.00  0.00  0.00  0.98  0.00  0.00  0.90  0.00
  GQ27                    1.00   0.02  0.00  0.00  0.87  0.11  0.00  0.00  0.86  0.00
  GQ28                    1.00   0.02  0.00  0.00  0.98  0.00  0.00  0.00  0.88  0.00
  GQ29                    1.00   0.02  0.00  0.00  0.98  0.00  0.00  0.00  0.13  0.00
  GQ30                    1.00   0.02  0.00  0.00  0.97  0.01  0.00  0.00  0.12  0.00
  GQ31                    1.00   0.02  0.00  0.00  0.98  0.00  0.00  0.00  0.88  0.00
  GQ32                    1.00   0.02  0.00  0.00  0.00  0.98  0.00  0.00  0.01  0.00
  GQ33                    1.00   0.02  0.00  0.00  0.51  0.48  0.00  0.00  0.82  0.00
  GQ34                    1.00   0.02  0.00  0.00  0.98  0.00  0.00  0.00  0.90  0.00
  GQ35                    1.00   0.02  0.00  0.00  0.16  0.82  0.00  0.00  0.71  0.00
  GQ36                    1.00   0.02  0.00  0.00  0.13  0.86  0.00  0.00  0.83  0.00
  GQ37                    1.00   0.02  0.00  0.00  0.98  0.00  0.00  0.00  0.86  0.00
  GQ38                    1.00   0.02  0.00  0.00  0.98  0.00  0.00  0.00  0.88  0.00
  GQ39                    1.00   0.02  0.00  0.00  0.97  0.01  0.00  0.00  0.87  0.00
  GQ40                    1.00   0.02  0.00  0.00  0.10  0.88  0.00  0.00  0.89  0.00
  GQ41                    1.00   0.02  0.00  0.00  0.98  0.00  0.00  0.00  0.82  0.00
  GQ42                    1.00   0.02  0.00  0.00  0.98  0.00  0.00  0.00  0.68  0.00
  GQ43                    1.00   0.02  0.00  0.00  0.15  0.84  0.00  0.00  0.86  0.00
  GQ44                    1.00   0.02  0.00  0.00  0.98  0.00  0.00  0.00  0.39  0.00
  GQ45                    1.00   0.02  0.00  0.00  0.34  0.64  0.00  0.00  0.94  0.00
  GQ46                    1.00   0.02  0.00  0.00  0.69  0.29  0.00  0.00  0.61  0.00
  GQ47                    1.00   0.02  0.00  0.00  0.98  0.00  0.00  0.00  0.94  0.00
  GQ48                    1.00   0.02  0.00  0.00  0.98  0.00  0.00  0.00  0.94  0.00
  GQ49                    1.00   0.02  0.00  0.00  0.81  0.17  0.00  0.00  0.94  0.00
  GQ50                    1.00   0.02  0.00  0.00  0.98  0.00  0.00  0.00  0.94  0.00
  GQ51                    1.00   0.02  0.00  0.00  0.08  0.90  0.00  0.00  0.77  0.00
  GQ52                    1.00   0.02  0.00  0.00  0.98  0.00  0.00  0.00  0.81  0.00
  GQ53                    1.00   0.02  0.00  0.00  0.98  0.00  0.00  0.00  0.71  0.00
  GQ54                    1.00   0.02  0.00  0.00  0.90  0.09  0.00  0.00  0.94  0.00
  GQ55                    1.00   0.02  0.00  0.00  0.98  0.00  0.00  0.00  0.94  0.00
  GQ56                    1.00   0.02  0.00  0.00  0.20  0.78  0.00  0.00  0.73  0.00
  GQ57                    1.00   0.02  0.00  0.00  0.98  0.00  0.00  0.00  0.94  0.00
  GQ58                    1.00   0.02  0.00  0.00  0.85  0.13  0.00  0.00  0.94  0.00
  GQ59                    1.00   0.02  0.00  0.00  0.98  0.00  0.00  0.00  0.69  0.00
  GQ60                    1.00   0.02  0.00  0.00  0.98  0.00  0.00  0.00  0.22  0.00
  GQ61                    1.00   0.02  0.00  0.00  0.98  0.00  0.00  0.00  0.94  0.00
  GQ62                    1.00   0.02  0.00  0.00  0.98  0.00  0.00  0.00  0.94  0.00
  GQ63                    1.00   0.02  0.00  0.00  0.98  0.01  0.00  0.00  0.94  0.00
  GQ64                    1.00   0.02  0.00  0.00  0.08  0.91  0.00  0.00  0.94  0.00
  GQ65                    1.00   0.02  0.00  0.00  0.98  0.00  0.00  0.00  0.94  0.00
  GQ66                    1.00   0.02  0.00  0.00  0.98  0.01  0.00  0.00  0.94  0.00
  GQ67                    1.00   0.02  0.00  0.00  0.98  0.00  0.00  0.00  0.06  0.00
  GQ68                    1.00   0.02  0.00  0.00  0.98  0.00  0.00  0.00  0.94  0.00
  GQ69                    1.00   0.02  0.00  0.00  0.84  0.14  0.00  0.00  0.94  0.00
  GQ70                    1.00   0.02  0.00  0.00  0.00  0.98  0.00  0.00  0.01  0.00
  GQ71                    1.00   0.02  0.00  0.00  0.00  0.98  0.00  0.00  0.02  0.00
  GQ72                    1.00   0.02  0.00  0.00  0.00  0.98  0.00  0.00  0.35  0.00
  GQ73                    1.00   0.02  0.00  0.00  0.00  0.98  0.00  0.00  0.02  0.00
  GQ74                    1.00   0.02  0.00  0.00  0.93  0.05  0.00  0.00  0.94  0.00
  GQ75                    1.00   0.02  0.00  0.00  0.98  0.00  0.00  0.00  0.94  0.00
  GQ76                    1.00   0.02  0.00  0.00  0.00  0.98  0.00  0.00  0.30  0.00
  GQ77                    1.00   0.02  0.98  0.00  0.00  0.00  0.00  0.00  0.00  0.00
  GQ78                    1.00   0.02  0.00  0.00  0.93  0.06  0.00  0.00  0.83  0.00
  GQ79                    1.00   0.02  0.00  0.00  0.98  0.00  0.00  0.00  0.09  0.00
  GQ80                    1.00   0.02  0.00  0.00  0.98  0.00  0.00  0.00  0.53  0.00
  GQ81                    1.00   0.02  0.00  0.00  0.98  0.00  0.00  0.00  0.04  0.00
  GQ82                    1.00   0.02  0.00  0.00  0.85  0.13  0.00  0.00  0.94  0.00
  GQ83                    1.00   0.02  0.00  0.00  0.00  0.98  0.00  0.00  0.94  0.00
  GQ84                    1.00   0.02  0.00  0.00  0.09  0.89  0.00  0.00  0.89  0.00
  GQ85                    1.00   0.02  0.00  0.00  0.98  0.00  0.00  0.00  0.69  0.00
  GQ86                    1.00   0.02  0.00  0.00  0.98  0.00  0.00  0.00  0.94  0.00
  GQ87                    1.00   0.02  0.00  0.00  0.98  0.00  0.00  0.00  0.94  0.00
  GQ88                    1.00   0.02  0.00  0.00  0.90  0.08  0.00  0.00  0.94  0.00
  GQ89                    1.00   0.02  0.00  0.00  0.98  0.00  0.00  0.00  0.94  0.00
  GQ90                    1.00   0.02  0.00  0.00  0.97  0.01  0.00  0.00  0.94  0.00
  GQ91                    1.00   0.02  0.00  0.00  0.98  0.00  0.00  0.00  0.91  0.00
  GQ92                    1.00   0.02  0.00  0.00  0.91  0.07  0.00  0.00  0.01  0.00
  GQ93                    1.00   0.02  0.00  0.00  0.98  0.00  0.00  0.00  0.88  0.00
  GQ94                    1.00   0.02  0.00  0.00  0.38  0.61  0.00  0.00  0.01  0.00
  GQ95                    1.00   0.02  0.00  0.00  0.98  0.00  0.00  0.00  0.94  0.00
  GQ96                    1.00   0.02  0.00  0.00  0.98  0.00  0.00  0.00  0.47  0.00
  GQ97                    1.00   0.02  0.00  0.00  0.00  0.98  0.00  0.00  0.26  0.00
  GQ98                    1.00   0.02  0.00  0.00  0.98  0.00  0.00  0.00  0.82  0.00
  GQ99                    1.00   0.02  0.00  0.00  0.98  0.01  0.00  0.00  0.94  0.00
  GQ100                   1.00   0.02  0.00  0.00  0.00  0.98  0.00  0.00  0.00  0.00
  GQ101                   1.00   0.02  0.00  0.00  0.98  0.01  0.00  0.00  0.94  0.00
  GQ102                   1.00   0.02  0.00  0.00  0.85  0.13  0.00  0.00  0.94  0.00
  GQ103                   1.00   0.02  0.00  0.00  0.98  0.00  0.00  0.00  0.88  0.00
  GQ104                   1.00   0.02  0.00  0.00  0.72  0.26  0.00  0.00  0.93  0.00
  GQ105                   1.00   0.02  0.00  0.00  0.98  0.00  0.00  0.00  0.07  0.00
  GQ106                   1.00   0.02  0.00  0.00  0.98  0.01  0.00  0.00  0.94  0.00
  GQ107                   1.00   0.02  0.00  0.00  0.76  0.22  0.00  0.00  0.87  0.00
  GQ108                   1.00   0.02  0.00  0.00  0.98  0.00  0.00  0.00  0.15  0.00
  GQ109                   1.00   0.02  0.00  0.00  0.94  0.05  0.00  0.00  0.94  0.00
  GQ110                   1.00   0.02  0.00  0.00  0.98  0.01  0.00  0.00  0.94  0.00
  GQ111                   1.00   0.02  0.00  0.00  0.98  0.01  0.00  0.00  0.90  0.00
  GQ112                   1.00   0.02  0.00  0.00  0.00  0.98  0.00  0.00  0.93  0.00
  GQ113                   1.00   0.02  0.00  0.00  0.00  0.98  0.00  0.00  0.93  0.00
  GQ114                   1.00   0.02  0.00  0.00  0.98  0.00  0.00  0.00  0.12  0.00
  GQ115                   1.00   0.02  0.00  0.00  0.97  0.01  0.00  0.00  0.94  0.00
  GQ116                   1.00   0.02  0.00  0.00  0.98  0.00  0.00  0.00  0.94  0.00
  GQ117                   1.00   0.02  0.00  0.00  0.00  0.98  0.00  0.00  0.00  0.00
  GQ118                   1.00   0.02  0.00  0.00  0.19  0.79  0.00  0.00  0.94  0.00
  GQ119                   1.00   0.02  0.00  0.00  0.76  0.23  0.00  0.00  0.82  0.00
  GQ120                   1.00   0.02  0.07  0.00  0.92  0.00  0.00  0.00  0.00  0.00
  GQ121                   1.00   0.02  0.00  0.00  0.98  0.00  0.00  0.00  0.10  0.00
  GQ122                   1.00   0.02  0.00  0.00  0.94  0.04  0.00  0.00  0.94  0.00
  GQ123                   1.00   0.02  0.00  0.00  0.86  0.13  0.00  0.00  0.94  0.00
  GQ124                   1.00   0.02  0.00  0.00  0.97  0.01  0.00  0.00  0.94  0.00
  GQ125                   1.00   0.02  0.00  0.00  0.98  0.01  0.00  0.00  0.90  0.00
  GQ126                   1.00   0.02  0.00  0.00  0.89  0.10  0.00  0.00  0.94  0.00
  GQ127                   1.00   0.02  0.00  0.00  0.98  0.00  0.00  0.00  0.78  0.00
  GQ128                   1.00   0.02  0.00  0.00  0.17  0.82  0.00  0.00  0.89  0.00
  GQ129                   1.00   0.02  0.00  0.00  0.98  0.00  0.00  0.00  0.47  0.00
  GQ130                   1.00   0.02  0.00  0.00  0.68  0.30  0.00  0.00  0.47  0.00
  GQ131                   1.00   0.02  0.00  0.00  0.94  0.04  0.00  0.00  0.86  0.00
  
  
  *************************
  Conduit Surcharge Summary
  *************************
  
  ----------------------------------------------------------------------------
                                                           Hours        Hours 
                         --------- Hours Full --------   Above Full   Capacity
  Conduit                Both Ends  Upstream  Dnstream   Normal Flow   Limited
  ----------------------------------------------------------------------------
  GQ4                         6.12      6.12     14.05      0.01         0.01
  GQ5                         0.98      0.98     13.55      0.01         0.01
  GQ6                         0.01      0.01      0.98      0.01         0.01
  GQ7                         2.24      2.24      4.22      0.01         0.01
  GQ8                         0.01      0.01      2.24      0.01         0.01
  GQ9                         0.01      0.01     14.72      0.01         0.01
  GQ10                        7.00      7.00     14.88      0.28         0.01
  GQ12                        0.01      0.01     12.40      0.01         0.01
  GQ13                        0.01      0.01      4.69      0.01         0.01
  GQ18                        0.01      0.01     12.37     12.46         0.01
  GQ20                        0.01      0.01      0.78      0.01         0.01
  GQ21                        0.01      0.01      0.78      0.01         0.01
  GQ24                        0.01      0.01     14.48      0.01         0.01
  GQ25                        0.01      0.33      0.01      0.45         0.01
  GQ26                        0.01      0.01      0.51      0.01         0.01
  GQ27                        0.51      0.51     12.51      0.01         0.01
  GQ28                        0.01      0.01     13.76      0.01         0.01
  GQ29                       12.41     12.41     13.76      0.01         0.01
  GQ30                       12.51     12.51     14.16      0.01         0.01
  GQ31                        0.33      0.33     14.96      0.01         0.01
  GQ32                        0.01      1.23      0.01      1.05         0.01
  GQ33                        1.23      1.23     14.96      0.01         0.01
  GQ34                        0.01      0.01      1.23      0.01         0.01
  GQ35                        1.09      1.11      1.23      0.12         0.01
  GQ36                        1.09      1.11      1.09      1.21         1.09
  GQ37                        0.01      0.01     14.61      0.01         0.01
  GQ38                        0.01      0.01     14.61      0.01         0.01
  GQ39                        0.86      0.86     12.40      0.01         0.01
  GQ40                        0.01      0.01      0.86      0.01         0.01
  GQ41                        0.01      0.01     13.61      0.01         0.01
  GQ42                        2.19      2.19     13.98      0.01         0.01
  GQ43                        1.33      1.33      2.19      0.07         0.01
  GQ44                        6.80      6.80     12.37      0.01         0.01
  GQ45                        0.01      0.01      4.02      0.01         0.01
  GQ46                        4.02      4.02      6.80      0.01         0.01
  GQ47                        0.01      0.01     13.61      0.01         0.01
  GQ48                        0.01      0.01     14.17      0.01         0.01
  GQ49                        0.01      0.01     14.17      0.01         0.01
  GQ50                        0.01      0.01      0.81      0.01         0.01
  GQ51                        0.01      0.81      0.01      0.93         0.01
  GQ52                        0.01      0.01     12.41      0.01         0.01
  GQ53                        2.04      2.04     14.22      0.01         0.01
  GQ54                        0.01      0.01     14.19      0.01         0.01
  GQ55                        0.01      0.01     14.19      0.01         0.01
  GQ56                        1.89      1.92      2.24      0.78         0.61
  GQ57                        0.01      0.01      1.92      0.01         0.01
  GQ58                        0.01      0.01     12.76      0.01         0.01
  GQ59                        2.19      2.19     12.76      0.01         0.01
  GQ60                        0.99      0.99      2.84      0.01         0.01
  GQ61                        0.01      0.01     11.93      0.01         0.01
  GQ62                        0.01      0.01     12.03      0.01         0.01
  GQ63                        0.01      0.01     12.15      0.01         0.01
  GQ66                        0.01      0.01     12.16      0.01         0.01
  GQ67                       11.95     11.95     12.03      0.01         0.01
  GQ68                        0.01      0.01     12.38      0.01         0.01
  GQ69                        0.01      0.01     13.03      0.01         0.01
  GQ75                        0.01      0.01     12.37      0.01         0.01
  GQ78                        1.29      1.29     14.47      0.01         0.01
  GQ79                        0.01      0.01     14.47      0.01         0.01
  GQ80                        1.29      1.29     12.41      0.01         0.01
  GQ81                       12.40     12.41     12.40     12.45         6.03
  GQ82                        0.01      0.01     12.40      0.01         0.01
  GQ83                        0.01      0.01      0.52      0.01         0.01
  GQ84                        0.74      0.74      2.12      0.08         0.01
  GQ85                        0.74      0.74     14.98      0.01         0.01
  GQ86                        0.01      0.01     13.15      0.01         0.01
  GQ87                        0.01      0.01     13.15      0.01         0.01
  GQ88                        0.01      0.01     13.93      0.01         0.01
  GQ89                        0.01      0.01     12.49      0.01         0.01
  GQ90                        0.01      0.01     12.30      0.01         0.01
  GQ91                        0.01      0.01     12.69      0.01         0.01
  GQ92                        0.69      0.69      0.82      0.66         0.59
  GQ93                        0.82      0.82      1.24      0.01         0.01
  GQ94                        1.24      1.24      1.33      1.19         1.12
  GQ95                        0.01      0.01     13.80      0.01         0.01
  GQ96                        0.66      0.67      0.69      0.79         0.60
  GQ98                        0.01      0.01     13.16      0.01         0.01
  GQ99                        0.01      0.01     12.09      0.01         0.01
  GQ101                       0.01      0.01     12.66      0.01         0.01
  GQ102                       0.01      0.01     13.77      0.01         0.01
  GQ103                       0.01      0.01     14.28      0.01         0.01
  GQ104                       0.01      0.01     14.28      0.01         0.01
  GQ105                      13.51     13.51     13.77     12.23         0.01
  GQ106                       0.01      0.01     13.80      0.01         0.01
  GQ107                       0.86      0.86     13.80      0.01         0.01
  GQ108                      12.32     12.32     13.51      0.01         0.01
  GQ109                       0.01      0.01      0.86      0.01         0.01
  GQ110                       0.01      0.01     12.37      0.01         0.01
  GQ111                       0.01      0.01     12.69      0.01         0.01
  GQ114                       0.01      0.01     13.95      0.01         0.01
  GQ116                       0.01      0.01     12.84      0.01         0.01
  GQ119                       1.48      1.48     14.47      0.01         0.01
  GQ120                       0.01      0.01     13.51      0.01         0.01
  GQ121                      13.52     13.52     14.47      0.01         0.01
  GQ122                       0.01      0.01     13.52      0.01         0.01
  GQ123                       0.01      0.01     13.70      0.01         0.01
  GQ125                       0.01      0.01     12.69      0.01         0.01
  GQ126                       0.01      0.01     12.66      0.01         0.01
  GQ127                       1.33      1.33      1.48      0.14         0.10
  GQ128                       0.01      0.01      1.15      0.01         0.01
  GQ129                       4.22      4.22     14.48      0.01         0.01
  GQ130                       4.47      4.47     15.23      0.01         0.01
  GQ131                       0.81      0.81     14.98      0.01         0.01
  

  Analysis begun on:  Sat Mar 25 16:22:59 2023
  Analysis ended on:  Sat Mar 25 16:23:03 2023
  Total elapsed time: 00:00:04