
  OWA STORM WATER MANAGEMENT MODEL - VERSION v5.1.14 (OWA 2022-07-31)
  --------------------------------------------------------------

  INP file created by DSDAConvertToSwmmTools 
  version 0.0.1 EcoVista 
  Title/Notes: 
  
  
  *********************************************************
  NOTE: The summary statistics displayed in this report are
  based on results found at every computational time step,  
  not just on results from each reporting time step.
  *********************************************************
  
  ****************
  Analysis Options
  ****************
  Flow Units ............... CMS
  Process Models:
    Rainfall/Runoff ........ YES
    RDII ................... NO
    Snowmelt ............... NO
    Groundwater ............ NO
    Flow Routing ........... YES
    Ponding Allowed ........ NO
    Water Quality .......... NO
  Infiltration Method ...... GREEN_AMPT
  Flow Routing Method ...... DYNWAVE
  Surcharge Method ......... EXTRAN
  Starting Date ............ 07/15/2020 00:00:00
  Ending Date .............. 07/15/2020 08:00:00
  Antecedent Dry Days ...... 0.0
  Report Time Step ......... 00:30:00
  Wet Time Step ............ 00:05:00
  Dry Time Step ............ 01:00:00
  Routing Time Step ........ 30.00 sec
  Variable Time Step ....... YES
  Maximum Trials ........... 8
  Number of Threads ........ 1
  Head Tolerance ........... 0.001500 m
  
  
  **************************        Volume         Depth
  Runoff Quantity Continuity     hectare-m            mm
  **************************     ---------       -------
  Total Precipitation ......       160.660        40.200
  Evaporation Loss .........         2.616         0.655
  Infiltration Loss ........        42.935        10.743
  Surface Runoff ...........       105.738        26.457
  Final Storage ............         9.721         2.432
  Continuity Error (%) .....        -0.218
  
  
  **************************        Volume        Volume
  Flow Routing Continuity        hectare-m      10^6 ltr
  **************************     ---------     ---------
  Dry Weather Inflow .......         0.000         0.000
  Wet Weather Inflow .......       105.424      1054.249
  Groundwater Inflow .......         0.000         0.000
  RDII Inflow ..............         0.000         0.000
  External Inflow ..........         0.000         0.000
  External Outflow .........         9.459        94.591
  Flooding Loss ............        94.081       940.819
  Evaporation Loss .........         0.000         0.000
  Exfiltration Loss ........         0.000         0.000
  Initial Stored Volume ....         0.000         0.000
  Final Stored Volume ......         1.691        16.910
  Continuity Error (%) .....         0.183
  
  
  *************************
  Highest Continuity Errors
  *************************
  Node jd51 (5.16%)
  Node jd64 (4.18%)
  Node jd59 (4.12%)
  Node jd55 (4.06%)
  Node jd31 (3.85%)
  
  
  ***************************
  Time-Step Critical Elements
  ***************************
  Link GQ73 (95.71%)
  
  
  ********************************
  Highest Flow Instability Indexes
  ********************************
  Link GQ67 (37)
  Link GQ114 (15)
  Link GQ29 (11)
  Link GQ119 (3)
  Link GQ121 (3)
  
  
  *************************
  Routing Time Step Summary
  *************************
  Minimum Time Step           :     0.72 sec
  Average Time Step           :     6.90 sec
  Maximum Time Step           :    30.00 sec
  Percent in Steady State     :     0.00
  Average Iterations per Step :     4.71
  Percent Not Converging      :    15.13
  
  
  ***************************
  Subcatchment Runoff Summary
  ***************************
  
  ------------------------------------------------------------------------------------------------------------------------------
                            Total      Total      Total      Total     Imperv       Perv      Total       Total     Peak  Runoff
                           Precip      Runon       Evap      Infil     Runoff     Runoff     Runoff      Runoff   Runoff   Coeff
  Subcatchment                 mm         mm         mm         mm         mm         mm         mm    10^6 ltr      CMS
  ------------------------------------------------------------------------------------------------------------------------------
  1                         40.20       0.00       0.39      22.52      16.04       0.00      16.04        6.35     0.53   0.399
  2                         40.20       0.00       0.70       8.56      28.13       0.00      28.13       25.43     2.14   0.700
  3                         40.20       0.00       0.73       7.33      29.63       0.00      29.63       11.86     1.00   0.737
  4                         40.20       0.00       0.75       6.30      30.82       0.00      30.82        2.59     0.22   0.767
  5                         40.20       0.00       0.67      10.24      27.22       0.00      27.22        3.37     0.28   0.677
  6                         40.20       0.00       0.64      11.52      26.14       0.00      26.14        2.43     0.20   0.650
  7                         40.20       0.00       0.66      10.29      26.75       0.00      26.75       11.66     0.98   0.665
  8                         40.20       0.00       0.84       2.25      34.14       0.00      34.14        4.75     0.40   0.849
  9                         40.20       0.00       0.87       1.12      35.27       0.00      35.27        4.13     0.35   0.877
  10                        40.20       0.00       0.75       6.54      30.39       0.00      30.39        6.85     0.58   0.756
  11                        40.20       0.00       0.81       3.84      32.64       0.00      32.64       16.18     1.37   0.812
  12                        40.20       0.00       0.64      11.56      25.84       0.00      25.84       12.61     1.07   0.643
  13                        40.20       0.00       0.80       4.33      32.24       0.00      32.24       14.58     1.23   0.802
  14                        40.20       0.00       0.80       4.38      32.39       0.00      32.39        6.11     0.52   0.806
  15                        40.20       0.00       0.74       7.07      29.86       0.00      29.86       10.09     0.85   0.743
  16                        40.20       0.00       0.76       5.84      30.90       0.00      30.90        9.13     0.77   0.769
  17                        40.20       0.00       0.72       8.02      28.99       0.00      28.99       12.13     1.03   0.721
  18                        40.20       0.00       0.82       3.16      33.25       0.00      33.25       13.73     1.16   0.827
  19                        40.20       0.00       0.82       3.31      33.08       0.00      33.08        7.44     0.63   0.823
  20                        40.20       0.00       0.81       3.53      32.63       0.00      32.63       17.51     1.48   0.812
  21                        40.20       0.00       0.87       1.18      35.01       0.00      35.01       10.99     0.93   0.871
  22                        40.20       0.00       0.85       1.90      34.31       0.00      34.31        4.22     0.36   0.854
  23                        40.20       0.00       0.78       4.92      31.57       0.00      31.57       18.08     1.53   0.785
  24                        40.20       0.00       0.76       6.14      30.45       0.00      30.45        5.40     0.46   0.757
  25                        40.20       0.00       0.81       3.77      32.87       0.00      32.87        6.66     0.56   0.818
  26                        40.20       0.00       0.69       9.17      27.64       0.00      27.64        9.70     0.82   0.687
  27                        40.20       0.00       0.83       3.01      33.10       0.00      33.10       13.99     1.18   0.823
  28                        40.20       0.00       0.84       2.22      33.94       0.00      33.94       16.05     1.36   0.844
  29                        40.20       0.00       0.75       6.24      30.72       0.00      30.72        7.17     0.61   0.764
  30                        40.20       0.00       0.86       1.36      35.28       0.00      35.28        2.53     0.21   0.878
  31                        40.20       0.00       0.87       0.85      35.39       0.00      35.39        7.80     0.66   0.880
  32                        40.20       0.00       0.85       1.79      34.47       0.00      34.47       14.90     1.26   0.858
  33                        40.20       0.00       0.86       1.31      34.83       0.00      34.83       12.27     1.04   0.867
  34                        40.20       0.00       0.80       4.07      32.47       0.00      32.47        9.52     0.81   0.808
  35                        40.20       0.00       0.83       3.03      33.38       0.00      33.38       13.85     1.17   0.830
  36                        40.20       0.00       0.68       9.58      27.64       0.00      27.64       10.88     0.92   0.687
  37                        40.20       0.00       0.85       2.17      34.14       0.00      34.14        7.58     0.64   0.849
  38                        40.20       0.00       0.79       4.55      32.08       0.00      32.08       12.24     1.04   0.798
  39                        40.20       0.00       0.72       7.99      29.06       0.00      29.06       12.27     1.04   0.723
  40                        40.20       0.00       0.80       4.35      32.24       0.00      32.24        7.37     0.62   0.802
  41                        40.20       0.00       0.81       3.54      33.12       0.00      33.12        6.53     0.55   0.824
  42                        40.20       0.00       0.81       3.57      32.67       0.00      32.67        8.07     0.68   0.813
  43                        40.20       0.00       0.68       9.40      27.55       0.00      27.55       21.78     1.83   0.685
  44                        40.20       0.00       0.73       7.33      29.40       0.00      29.40       14.21     1.20   0.731
  45                        40.20       0.00       0.69       9.32      27.70       0.00      27.70       20.04     1.69   0.689
  46                        40.20       0.00       0.66      10.39      26.99       0.00      26.99       13.49     1.14   0.671
  47                        40.20       0.00       0.70       8.89      28.08       0.00      28.08       32.74     2.77   0.699
  48                        40.20       0.00       0.83       2.78      33.26       0.00      33.26       19.30     1.63   0.827
  49                        40.20       0.00       0.76       5.95      30.47       0.00      30.47       20.63     1.74   0.758
  50                        40.20       0.00       0.84       2.26      33.49       0.00      33.49       13.16     1.10   0.833
  51                        40.20       0.00       0.81       3.91      32.12       0.00      32.12        6.01     0.50   0.799
  52                        40.20       0.00       0.39      22.55      16.12       0.00      16.12       16.54     1.38   0.401
  53                        40.20       0.00       0.57      14.64      23.18       0.00      23.18       24.68     2.08   0.577
  54                        40.20       0.00       0.70       8.66      28.44       0.00      28.44        6.93     0.59   0.707
  55                        40.20       0.00       0.40      22.14      16.48       0.00      16.48       13.00     1.09   0.410
  56                        40.20       0.00       0.15      33.39       6.33       0.00       6.33        5.16     0.42   0.157
  57                        40.20       0.00       0.79       4.48      31.78       0.00      31.78       26.40     2.22   0.791
  58                        40.20       0.00       0.74       7.10      29.82       0.00      29.82        4.91     0.42   0.742
  59                        40.20       0.00       0.72       7.89      29.37       0.00      29.37        3.74     0.31   0.731
  60                        40.20       0.00       0.27      28.09      11.13       0.00      11.13        3.19     0.27   0.277
  61                        40.20       0.00       0.42      21.37      17.05       0.00      17.05        6.42     0.54   0.424
  62                        40.20       0.00       0.58      13.99      23.51       0.00      23.51       27.55     2.32   0.585
  63                        40.20       0.00       0.79       4.43      31.65       0.00      31.65       61.22     5.11   0.787
  64                        40.20       0.00       0.59      13.52      24.11       0.00      24.11        5.18     0.44   0.600
  65                        40.20       0.00       0.81       3.92      32.16       0.00      32.16       21.63     1.81   0.800
  66                        40.20       0.00       0.63      11.63      25.56       0.00      25.56        6.51     0.55   0.636
  67                        40.20       0.00       0.59      13.50      24.19       0.00      24.19        7.82     0.66   0.602
  68                        40.20       0.00       0.71       8.17      28.95       0.00      28.95        3.22     0.27   0.720
  69                        40.20       0.00       0.42      21.40      17.25       0.00      17.25        5.52     0.46   0.429
  70                        40.20       0.00       0.59      13.74      23.83       0.00      23.83       19.60     1.66   0.593
  71                        40.20       0.00       0.73       7.51      29.52       0.00      29.52        3.62     0.31   0.734
  72                        40.20       0.00       0.77       5.74      31.11       0.00      31.11        3.87     0.33   0.774
  73                        40.20       0.00       0.69       8.98      28.34       0.00      28.34        4.71     0.40   0.705
  74                        40.20       0.00       0.66      10.44      26.97       0.00      26.97        5.81     0.49   0.671
  75                        40.20       0.00       0.74       7.12      29.90       0.00      29.90        4.31     0.36   0.744
  76                        40.20       0.00       0.77       5.40      31.50       0.00      31.50        3.05     0.26   0.784
  77                        40.20       0.00       0.82       3.09      33.43       0.00      33.43        3.62     0.31   0.832
  78                        40.20       0.00       0.80       4.40      32.21       0.00      32.21        3.54     0.30   0.801
  79                        40.20       0.00       0.35      24.50      14.36       0.00      14.36       15.22     1.27   0.357
  80                        40.20       0.00       0.66      10.61      26.52       0.00      26.52       16.60     1.40   0.660
  81                        40.20       0.00       0.67      10.14      26.90       0.00      26.90       11.72     0.99   0.669
  82                        40.20       0.00       0.64      11.42      25.77       0.00      25.77       23.63     1.99   0.641
  83                        40.20       0.00       0.80       4.22      32.49       0.00      32.49        3.97     0.34   0.808
  84                        40.20       0.00       0.75       6.24      30.56       0.00      30.56        3.65     0.31   0.760
  85                        40.20       0.00       0.89       0.31      36.10       0.00      36.10        3.36     0.28   0.898
  86                        40.20       0.00       0.82       3.39      33.16       0.00      33.16        4.88     0.41   0.825
  87                        40.20       0.00       0.87       0.86      35.31       0.00      35.31        4.64     0.39   0.878
  88                        40.20       0.00       0.78       5.01      31.80       0.00      31.80        3.05     0.26   0.791
  89                        40.20       0.00       0.82       3.23      33.37       0.00      33.37        6.43     0.54   0.830
  90                        40.20       0.00       0.89       0.01      36.53       0.00      36.53        0.42     0.04   0.909
  91                        40.20       0.00       0.74       6.74      29.79       0.00      29.79        6.50     0.55   0.741
  92                        40.20       0.00       0.82       3.13      33.41       0.00      33.41        4.18     0.35   0.831
  93                        40.20       0.00       0.67       9.99      27.19       0.00      27.19       13.91     1.18   0.676
  94                        40.20       0.00       0.60      13.02      24.82       0.00      24.82        1.74     0.15   0.617
  95                        40.20       0.00       0.89       0.04      36.32       0.00      36.32        0.79     0.07   0.904
  96                        40.20       0.00       0.72       7.78      29.33       0.00      29.33        3.58     0.30   0.730
  97                        40.20       0.00       0.87       0.85      35.48       0.00      35.48        3.52     0.30   0.883
  98                        40.20       0.00       0.72       7.59      29.54       0.00      29.54        3.64     0.31   0.735
  99                        40.20       0.00       0.36      24.05      14.79       0.00      14.79        5.49     0.46   0.368
  100                       40.20       0.00       0.40      22.25      16.44       0.00      16.44        4.22     0.35   0.409
  101                       40.20       0.00       0.41      21.81      16.74       0.00      16.74        8.20     0.69   0.417
  102                       40.20       0.00       0.67      10.22      27.05       0.00      27.05        6.60     0.56   0.673
  103                       40.20       0.00       0.22      30.18       9.30       0.00       9.30        3.38     0.28   0.231
  104                       40.20       0.00       0.15      33.42       6.27       0.00       6.27        6.08     0.50   0.156
  105                       40.20       0.00       0.73       7.14      29.95       0.00      29.95        3.92     0.33   0.745
  106                       40.20       0.00       0.40      22.29      16.36       0.00      16.36        3.99     0.33   0.407
  
  
  ******************
  Node Depth Summary
  ******************
  
  ---------------------------------------------------------------------------------
                                 Average  Maximum  Maximum  Time of Max    Reported
                                   Depth    Depth      HGL   Occurrence   Max Depth
  Node                 Type       Meters   Meters   Meters  days hr:min      Meters
  ---------------------------------------------------------------------------------
  jd1                  JUNCTION     0.14     0.20   273.20     0  03:00        0.20
  jd2                  JUNCTION     0.70     3.00   270.00     0  02:37        2.40
  jd3                  JUNCTION     2.75     3.00   266.00     0  02:04        3.00
  jd4                  JUNCTION     2.23     3.00   270.00     0  02:18        3.00
  jd5                  JUNCTION     0.10     0.14   274.14     0  03:00        0.14
  jd6                  JUNCTION     0.12     0.18   275.18     0  03:00        0.18
  jd7                  JUNCTION     0.38     0.49   264.59     0  03:00        0.49
  jd8                  JUNCTION     2.44     3.00   267.00     0  02:08        3.00
  jd9                  JUNCTION     2.28     3.00   268.00     0  02:12        3.00
  jd10                 JUNCTION     2.77     3.00   273.00     0  01:58        3.00
  jd11                 JUNCTION     0.11     0.16   282.16     0  03:00        0.16
  jd12                 JUNCTION     2.79     3.00   272.00     0  01:52        3.00
  jd13                 JUNCTION     0.13     0.19   289.19     0  03:00        0.19
  jd14                 JUNCTION     0.34     3.00   283.00     0  02:55        1.35
  jd15                 JUNCTION     0.31     0.48   278.48     0  03:00        0.48
  jd16                 JUNCTION     0.34     0.51   274.51     0  03:00        0.51
  jd17                 JUNCTION     2.68     3.00   278.80     0  02:12        3.00
  jd18                 JUNCTION     0.59     3.00   282.00     0  02:47        2.61
  jd19                 JUNCTION     1.96     3.00   270.00     0  02:14        3.00
  jd20                 JUNCTION     0.22     0.30   273.30     0  03:00        0.30
  jd21                 JUNCTION     2.75     3.00   273.00     0  02:03        3.00
  jd22                 JUNCTION     2.20     3.00   275.00     0  02:08        3.00
  jd23                 JUNCTION     0.27     0.44   278.44     0  03:00        0.44
  jd24                 JUNCTION     0.16     0.23   285.23     0  03:00        0.23
  jd25                 JUNCTION     0.27     0.40   279.40     0  03:00        0.40
  jd26                 JUNCTION     0.47     3.00   288.00     0  02:44        3.00
  jd27                 JUNCTION     0.24     0.37   291.37     0  03:00        0.37
  jd28                 JUNCTION     2.81     3.00   290.00     0  01:45        3.00
  jd29                 JUNCTION     0.11     0.16   299.16     0  03:00        0.16
  jd30                 JUNCTION     0.15     0.22   290.22     0  03:00        0.22
  jd31                 JUNCTION     1.05     3.00   275.00     0  02:13        1.39
  jd32                 JUNCTION     2.80     3.00   275.00     0  01:50        3.00
  jd33                 JUNCTION     0.21     0.32   289.32     0  03:00        0.32
  jd34                 JUNCTION     0.25     0.40   294.40     0  03:00        0.40
  jd35                 JUNCTION     2.84     3.00   292.00     0  01:36        3.00
  jd36                 JUNCTION     1.08     3.00   302.00     0  02:30        3.00
  jd37                 JUNCTION     1.02     3.00   306.00     0  02:30        3.00
  jd38                 JUNCTION     0.45     0.73   297.73     0  03:00        0.73
  jd39                 JUNCTION     2.76     3.00   297.00     0  02:04        3.00
  jd40                 JUNCTION     1.98     3.00   302.00     0  02:23        3.00
  jd41                 JUNCTION     2.70     3.00   296.00     0  02:18        3.00
  jd42                 JUNCTION     0.22     0.32   305.32     0  03:00        0.32
  jd43                 JUNCTION     1.51     3.00   300.00     0  02:17        3.00
  jd44                 JUNCTION     1.79     3.00   286.00     0  02:22        3.00
  jd45                 JUNCTION     2.78     3.00   282.00     0  01:57        3.00
  jd46                 JUNCTION     0.32     0.47   275.47     0  03:00        0.47
  jd47                 JUNCTION     0.18     0.25   315.25     0  03:00        0.25
  jd48                 JUNCTION     0.12     0.18   325.18     0  03:00        0.18
  jd49                 JUNCTION     0.29     0.43   289.43     0  03:00        0.43
  jd50                 JUNCTION     2.82     3.00   278.00     0  01:43        3.00
  jd51                 JUNCTION     2.68     3.00   313.00     0  02:19        3.00
  jd52                 JUNCTION     0.83     3.00   326.00     0  02:37        1.99
  jd53                 JUNCTION     1.05     3.00   325.00     0  02:32        2.89
  jd54                 JUNCTION     0.32     0.47   326.47     0  03:00        0.47
  jd55                 JUNCTION     1.83     3.00   325.00     0  02:16        3.00
  jd56                 JUNCTION     0.21     0.33   327.33     0  03:00        0.33
  jd59                 JUNCTION     2.67     3.00   320.80     0  02:21        3.00
  jd60                 JUNCTION     2.79     3.00   319.00     0  01:51        3.00
  jd61                 JUNCTION     0.16     0.23   329.23     0  03:00        0.23
  jd62                 JUNCTION     0.07     0.10   335.10     0  03:00        0.10
  jd63                 JUNCTION     0.08     0.11   324.11     0  03:00        0.11
  jd64                 JUNCTION     2.50     3.00   321.00     0  02:21        2.85
  jd65                 JUNCTION     2.72     3.00   307.00     0  02:10        3.00
  jd66                 JUNCTION     2.76     3.00   304.00     0  02:01        3.00
  jd69                 JUNCTION     0.26     0.38   333.38     0  03:00        0.38
  jd79                 JUNCTION     2.80     3.00   274.00     0  01:48        3.00
  jd80                 JUNCTION     2.74     3.00   279.00     0  02:06        3.00
  jd81                 JUNCTION     0.17     0.24   288.24     0  03:00        0.24
  jd83                 JUNCTION     2.85     3.00   323.00     0  01:33        3.00
  jd84                 JUNCTION     0.28     0.45   323.45     0  03:00        0.45
  jd85                 JUNCTION     2.77     3.00   324.00     0  01:58        3.00
  jd87                 JUNCTION     2.78     3.00   322.00     0  01:55        3.00
  jd89                 JUNCTION     0.18     0.26   324.26     0  03:00        0.26
  jd90                 JUNCTION     0.16     0.23   328.23     0  03:00        0.23
  jd92                 JUNCTION     0.16     0.23   326.23     0  03:00        0.23
  jd93                 JUNCTION     1.00     3.00   327.00     0  02:30        2.78
  jd94                 JUNCTION     0.37     2.80   329.00     0  02:50        1.12
  jd95                 JUNCTION     0.39     0.93   327.93     0  03:00        0.80
  jd96                 JUNCTION     2.80     3.00   308.00     0  01:50        3.00
  jd97                 JUNCTION     0.39     0.87   328.07     0  03:01        0.72
  jd98                 JUNCTION     0.21     0.32   329.32     0  03:00        0.32
  jd99                 JUNCTION     2.76     3.00   327.00     0  02:02        3.00
  jd101                JUNCTION     0.13     0.18   321.18     0  03:00        0.18
  jd102                JUNCTION     0.26     0.40   324.40     0  03:00        0.40
  jd103                JUNCTION     0.13     0.18   318.18     0  03:00        0.18
  jd106                JUNCTION     2.71     3.00   287.00     0  02:12        3.00
  jd107                JUNCTION     0.24     0.34   332.34     0  03:00        0.34
  jd108                JUNCTION     1.19     1.40   327.40     0  02:39        1.40
  jd109                JUNCTION     0.18     0.27   343.27     0  03:00        0.27
  jd110                JUNCTION     2.77     3.00   327.00     0  01:59        3.00
  jd111                JUNCTION     0.08     0.12   344.12     0  03:00        0.12
  jd112                JUNCTION     0.11     0.15   334.15     0  03:00        0.15
  jd113                JUNCTION     0.12     0.17   348.17     0  03:00        0.17
  jd114                JUNCTION     2.78     3.00   317.00     0  01:55        3.00
  jd117                JUNCTION     1.31     3.00   319.00     0  02:04        2.03
  jd118                JUNCTION     0.10     0.15   330.15     0  03:00        0.15
  jd120                JUNCTION     0.18     0.26   327.26     0  03:00        0.26
  jd121                JUNCTION     0.18     0.27   320.27     0  03:00        0.27
  jd122                JUNCTION     2.75     3.00   276.00     0  02:03        3.00
  jd123                JUNCTION     2.74     3.00   276.20     0  02:05        3.00
  jd124                JUNCTION     2.87     3.00   271.00     0  01:28        3.00
  jd125                JUNCTION     2.13     3.00   278.00     0  02:17        3.00
  jd126                JUNCTION     2.84     3.00   275.00     0  01:35        3.00
  jd135                JUNCTION     0.15     0.23   289.23     0  03:00        0.23
  jd136                JUNCTION     0.30     0.44   341.44     0  03:00        0.44
  psk1                 OUTFALL      0.10     0.15   279.15     0  03:00        0.15
  psk2                 OUTFALL      0.15     0.22   270.22     0  03:00        0.22
  psk3                 OUTFALL      0.34     0.51   271.51     0  03:00        0.51
  psk4                 OUTFALL      0.00     0.00   280.00     0  00:00        0.00
  psk5                 OUTFALL      0.14     0.20   263.20     0  03:00        0.20
  psk6                 OUTFALL      0.10     0.14   259.14     0  03:00        0.14
  psk7                 OUTFALL      0.38     0.49   262.49     0  03:00        0.49
  psk8                 OUTFALL      0.00     0.00   317.00     0  00:00        0.00
  
  
  *******************
  Node Inflow Summary
  *******************
  
  -------------------------------------------------------------------------------------------------
                                  Maximum  Maximum                  Lateral       Total        Flow
                                  Lateral    Total  Time of Max      Inflow      Inflow     Balance
                                   Inflow   Inflow   Occurrence      Volume      Volume       Error
  Node                 Type           CMS      CMS  days hr:min    10^6 ltr    10^6 ltr     Percent
  -------------------------------------------------------------------------------------------------
  jd1                  JUNCTION     0.534    0.848     0  03:00        6.33        10.2       0.399
  jd2                  JUNCTION     0.816    1.112     0  03:00        9.67        13.2       0.578
  jd3                  JUNCTION     0.984    2.607     0  03:00        11.6        34.6       1.179
  jd4                  JUNCTION     1.180    1.317     0  03:00        13.9        15.6       0.861
  jd5                  JUNCTION     0.349    0.589     0  03:00        4.12        7.08       0.198
  jd6                  JUNCTION     0.403    0.403     0  03:00        4.74        4.74       0.256
  jd7                  JUNCTION     0.204    2.052     0  03:00        2.42          31       0.359
  jd8                  JUNCTION     0.283    1.229     0  03:00        3.36          21       1.174
  jd9                  JUNCTION     0.218    1.285     0  03:00        2.58        20.7       1.020
  jd10                 JUNCTION     0.579    0.734     0  03:00        6.83        8.67       1.186
  jd11                 JUNCTION     0.854    0.854     0  03:00        10.1        10.1       0.299
  jd12                 JUNCTION     0.642    1.402     0  03:00        7.55        16.4       0.849
  jd13                 JUNCTION     1.163    1.163     0  03:00        13.7        13.7       0.249
  jd14                 JUNCTION     1.357    1.532     0  03:00          16          18       0.416
  jd15                 JUNCTION     0.563    1.327     0  03:00        6.64        14.7       1.087
  jd16                 JUNCTION     0.606    2.419     0  03:00        7.15        27.6       0.456
  jd17                 JUNCTION     1.262    2.911     0  03:00        14.9        36.4       2.199
  jd18                 JUNCTION     1.003    1.461     0  03:00        11.8        17.2       0.658
  jd19                 JUNCTION     0.932    1.682     0  03:00          11        21.1       0.412
  jd20                 JUNCTION     0.773    1.011     0  03:00         9.1          14       0.628
  jd21                 JUNCTION     0.358    2.388     0  03:00        4.21        32.8       1.035
  jd22                 JUNCTION     0.630    1.349     0  03:00        7.42        16.3       0.502
  jd23                 JUNCTION     0.624    1.798     0  03:00        7.35        20.6       0.357
  jd24                 JUNCTION     1.026    1.026     0  03:00        12.1        12.1       0.299
  jd25                 JUNCTION     0.806    1.170     0  03:00        9.49        13.7       0.484
  jd26                 JUNCTION     1.173    1.905     0  03:00        13.8          23       0.443
  jd27                 JUNCTION     1.201    1.870     0  03:00        14.2        23.4       0.411
  jd28                 JUNCTION     1.626    2.188     0  03:00        19.2        26.8       0.510
  jd29                 JUNCTION     0.661    0.661     0  03:00        7.78        7.78       0.199
  jd30                 JUNCTION     0.682    2.150     0  03:00        8.04          24       0.238
  jd31                 JUNCTION     0.456    1.209     0  02:12        5.38        11.6       3.999
  jd32                 JUNCTION     0.931    3.320     0  03:00          11        45.4       0.560
  jd33                 JUNCTION     0.919    1.574     0  03:00        10.8        18.2       0.264
  jd34                 JUNCTION     1.138    1.138     0  03:00        13.5        13.5       0.219
  jd35                 JUNCTION     1.037    2.953     0  03:00        12.2          40       0.335
  jd36                 JUNCTION     1.736    2.638     0  03:00        20.6        32.9       0.466
  jd37                 JUNCTION     1.835    1.835     0  03:00        21.7        21.7       0.348
  jd38                 JUNCTION     1.692    2.640     0  03:00          20        32.7       0.660
  jd39                 JUNCTION     1.176    3.695     0  03:00        13.9        54.2       0.953
  jd40                 JUNCTION     1.993    4.183     0  03:00        23.6        55.6       0.645
  jd41                 JUNCTION     1.404    4.853     0  03:00        16.6        64.2       3.399
  jd42                 JUNCTION     1.813    1.992     0  03:00        21.6        23.7       0.490
  jd43                 JUNCTION     2.078    3.749     0  03:00        24.6        43.7       0.750
  jd44                 JUNCTION     2.766    5.193     0  03:00        32.6        72.7       0.687
  jd45                 JUNCTION     1.096    3.321     0  03:00        13.1        49.2       0.668
  jd46                 JUNCTION     0.502    0.502     0  03:00        5.99        5.99       1.424
  jd47                 JUNCTION     1.656    1.656     0  03:00        19.5        19.5       0.313
  jd48                 JUNCTION     0.460    0.460     0  03:00         5.5         5.5       0.338
  jd49                 JUNCTION     2.222    2.222     0  03:00        26.3        26.3       0.400
  jd50                 JUNCTION     2.323    5.036     0  03:00        27.5        70.4       0.629
  jd51                 JUNCTION     0.489    2.248     0  03:00        5.79        26.5       5.445
  jd52                 JUNCTION     0.989    3.824     0  02:36        11.7        41.8       0.611
  jd53                 JUNCTION     0.547    2.556     0  02:29        6.48        33.2       0.350
  jd54                 JUNCTION     0.298    1.483     0  03:00        3.51        17.5       0.498
  jd55                 JUNCTION     0.544    1.883     0  03:00        6.41        21.5       4.228
  jd56                 JUNCTION     0.331    0.967     0  03:00         3.9        11.4       0.413
  jd59                 JUNCTION     0.328    1.625     0  03:00        3.86        18.7       4.301
  jd60                 JUNCTION     0.586    1.244     0  03:00        6.91        14.7       0.890
  jd61                 JUNCTION     0.658    0.740     0  03:00         7.8        8.78       0.296
  jd62                 JUNCTION     0.265    0.265     0  03:00        3.18        3.18       0.145
  jd63                 JUNCTION     0.364    0.364     0  03:00         4.3         4.3       0.209
  jd64                 JUNCTION     0.306    0.756     0  03:00        3.61         8.9       4.365
  jd65                 JUNCTION     5.113    5.113     0  03:00          61          61       0.341
  jd66                 JUNCTION     0.687    1.995     0  03:00        8.18        23.7       1.366
  jd69                 JUNCTION     1.273    1.308     0  03:00        15.2        15.6       0.411
  jd79                 JUNCTION     1.235    2.128     0  03:00        14.5        26.4       0.676
  jd80                 JUNCTION     1.371    1.938     0  03:00        16.1        21.3       0.711
  jd81                 JUNCTION     1.039    1.039     0  03:00        12.2        12.2       0.110
  jd83                 JUNCTION     1.090    1.329     0  03:00          13        16.5       0.523
  jd84                 JUNCTION     1.385    1.385     0  03:00        16.5        16.5       0.322
  jd85                 JUNCTION     0.315    0.515     0  03:00        3.73        6.12       1.414
  jd87                 JUNCTION     0.258    0.621     0  03:00        3.04        7.34       1.028
  jd89                 JUNCTION     0.300    0.300     0  03:00        3.53        3.53       0.429
  jd90                 JUNCTION     0.306    0.306     0  03:00        3.61        3.61       0.316
  jd92                 JUNCTION     0.257    0.257     0  03:00        3.04        3.04       0.235
  jd93                 JUNCTION     0.550    1.128     0  03:00        6.49          14       0.552
  jd94                 JUNCTION     0.035    0.647     0  02:43       0.418        7.56       0.555
  jd95                 JUNCTION     0.067    0.609     0  02:50       0.791        7.19       0.604
  jd96                 JUNCTION     0.503    0.670     0  03:00        6.06        8.03       1.217
  jd97                 JUNCTION     0.542    0.542     0  03:00        6.41        6.41       0.162
  jd98                 JUNCTION     0.303    0.303     0  03:00        3.57        3.57       0.267
  jd99                 JUNCTION     0.146    0.383     0  03:00        1.73        5.26       1.097
  jd101                JUNCTION     0.397    0.790     0  03:00        4.69         9.3       0.251
  jd102                JUNCTION     0.394    0.394     0  03:00        4.63        4.63       0.372
  jd103                JUNCTION     0.272    0.272     0  03:00        3.21        3.21       0.127
  jd106                JUNCTION     0.213    1.271     0  03:00        2.52        14.7       2.693
  jd107                JUNCTION     0.307    1.009     0  03:00        3.63        11.9       0.480
  jd108                JUNCTION     0.334    0.334     0  03:00        3.98           4       1.665
  jd109                JUNCTION     0.557    0.557     0  03:00        6.58        6.58       0.118
  jd110                JUNCTION     0.425    0.632     0  03:00        5.14        7.62       2.043
  jd111                JUNCTION     0.352    0.352     0  03:00        4.21        4.21       0.240
  jd112                JUNCTION     0.414    1.150     0  03:00        4.87        13.7       0.202
  jd113                JUNCTION     0.279    0.279     0  03:00        3.37        3.37       0.075
  jd114                JUNCTION     0.336    3.637     0  03:00        3.96        48.9       0.654
  jd117                JUNCTION     0.309    1.015     0  03:00        3.64        12.1       1.315
  jd118                JUNCTION     0.284    0.284     0  03:00        3.35        3.35       0.066
  jd120                JUNCTION     0.354    0.354     0  03:00        4.16        4.16       0.210
  jd121                JUNCTION     0.436    0.436     0  03:00        5.16        5.16       0.257
  jd122                JUNCTION     1.036    3.888     0  03:00        12.2        48.9       1.163
  jd123                JUNCTION     1.066    3.310     0  03:00        12.6        47.4       1.500
  jd124                JUNCTION     1.529    2.602     0  03:00          18        38.9       0.157
  jd125                JUNCTION     1.476    3.151     0  03:00        17.5        47.8       0.349
  jd126                JUNCTION     2.135    2.903     0  03:00        25.4        35.3       0.295
  jd135                JUNCTION     0.552    0.552     0  03:00        6.51        6.51       0.186
  jd136                JUNCTION     0.458    0.737     0  03:00        5.47        8.84       0.499
  psk1                 OUTFALL      0.000    0.551     0  03:00           0         6.5       0.000
  psk2                 OUTFALL      0.000    1.609     0  03:00           0        17.7       0.000
  psk3                 OUTFALL      0.000    2.405     0  03:00           0        27.5       0.000
  psk4                 OUTFALL      0.000    0.000     0  00:00           0           0       0.000 ltr
  psk5                 OUTFALL      0.000    0.549     0  03:00           0        6.58       0.000
  psk6                 OUTFALL      0.000    0.452     0  03:00           0        5.42       0.000
  psk7                 OUTFALL      0.000    2.051     0  03:00           0        30.9       0.000
  psk8                 OUTFALL      0.000    0.000     0  00:00           0           0       0.000 ltr
  
  
  **********************
  Node Surcharge Summary
  **********************
  
  Surcharging occurs when water rises above the top of the highest conduit.
  ---------------------------------------------------------------------
                                               Max. Height   Min. Depth
                                   Hours       Above Crown    Below Rim
  Node                 Type      Surcharged         Meters       Meters
  ---------------------------------------------------------------------
  jd2                  JUNCTION        1.18          2.200        0.000
  jd3                  JUNCTION        5.92          2.200        0.000
  jd4                  JUNCTION        4.57          2.200        0.000
  jd8                  JUNCTION        5.86          2.200        0.000
  jd9                  JUNCTION        5.60          2.200        0.000
  jd10                 JUNCTION        6.02          2.400        0.000
  jd12                 JUNCTION        6.13          2.400        0.000
  jd14                 JUNCTION        0.13          2.400        0.000
  jd17                 JUNCTION        5.80          2.200        0.000
  jd18                 JUNCTION        0.60          2.000        0.000
  jd19                 JUNCTION        4.10          2.200        0.000
  jd21                 JUNCTION        5.95          2.200        0.000
  jd22                 JUNCTION        5.86          2.400        0.000
  jd26                 JUNCTION        0.35          2.400        0.000
  jd28                 JUNCTION        6.25          2.400        0.000
  jd31                 JUNCTION        5.78          2.200        0.000
  jd32                 JUNCTION        6.16          2.200        0.000
  jd35                 JUNCTION        6.39          2.400        0.000
  jd36                 JUNCTION        1.70          2.400        0.000
  jd37                 JUNCTION        1.51          2.400        0.000
  jd39                 JUNCTION        5.93          2.000        0.000
  jd40                 JUNCTION        4.04          2.200        0.000
  jd41                 JUNCTION        5.70          1.000        0.000
  jd43                 JUNCTION        2.45          2.200        0.000
  jd44                 JUNCTION        3.96          2.000        0.000
  jd45                 JUNCTION        6.05          2.000        0.000
  jd50                 JUNCTION        6.28          2.200        0.000
  jd51                 JUNCTION        5.68          1.350        0.000
  jd52                 JUNCTION        1.23          1.500        0.000
  jd53                 JUNCTION        1.58          1.800        0.000
  jd55                 JUNCTION        4.14          1.500        0.000
  jd59                 JUNCTION        5.64          1.500        0.000
  jd60                 JUNCTION        6.15          2.400        0.000
  jd64                 JUNCTION        5.65          1.800        0.000
  jd65                 JUNCTION        5.83          2.400        0.000
  jd66                 JUNCTION        5.98          2.200        0.000
  jd79                 JUNCTION        6.21          2.400        0.000
  jd80                 JUNCTION        5.89          2.400        0.000
  jd83                 JUNCTION        6.44          2.400        0.000
  jd85                 JUNCTION        6.03          2.400        0.000
  jd87                 JUNCTION        6.08          2.400        0.000
  jd93                 JUNCTION        1.73          2.200        0.000
  jd94                 JUNCTION        0.42          1.997        0.203
  jd95                 JUNCTION        0.05          0.133        2.067
  jd96                 JUNCTION        6.16          2.200        0.000
  jd97                 JUNCTION        0.02          0.065        2.135
  jd99                 JUNCTION        5.97          2.400        0.000
  jd106                JUNCTION        5.80          2.000        0.000
  jd108                JUNCTION        6.11          0.402        1.598
  jd110                JUNCTION        6.01          2.000        0.000
  jd114                JUNCTION        6.08          2.000        0.000
  jd117                JUNCTION        5.93          2.200        0.000
  jd122                JUNCTION        5.95          2.200        0.000
  jd123                JUNCTION        5.91          2.200        0.000
  jd124                JUNCTION        6.54          2.400        0.000
  jd125                JUNCTION        4.35          2.200        0.000
  jd126                JUNCTION        6.41          2.400        0.000
  
  
  *********************
  Node Flooding Summary
  *********************
  
  Flooding refers to all water that overflows a node, whether it ponds or not.
  --------------------------------------------------------------------------
                                                             Total   Maximum
                                 Maximum   Time of Max       Flood    Ponded
                        Hours       Rate    Occurrence      Volume     Depth
  Node                 Flooded       CMS   days hr:min    10^6 ltr    Meters
  --------------------------------------------------------------------------
  jd2                     0.01     0.166      0  02:37       0.003     0.000
  jd3                     5.92     2.607      0  03:00      34.228     0.000
  jd4                     4.06     0.807      0  03:00       5.611     0.000
  jd8                     3.99     0.259      0  02:08       1.403     0.000
  jd9                     3.58     0.512      0  02:12       2.754     0.000
  jd10                    6.02     0.734      0  03:00       8.565     0.000
  jd12                    6.12     1.402      0  03:00      16.279     0.000
  jd14                    0.01     0.081      0  02:55       0.000     0.000
  jd17                    4.60     2.082      0  03:00      18.094     0.000
  jd18                    0.01     0.272      0  02:47       0.005     0.000
  jd19                    2.05     0.614      0  03:00       2.962     0.000
  jd21                    5.81     2.388      0  03:00      32.173     0.000
  jd22                    2.13     0.525      0  03:00       2.492     0.000
  jd26                    0.12     0.194      0  02:44       0.004     0.000
  jd28                    6.24     2.188      0  03:00      26.651     0.000
  jd31                    0.01     1.017      0  02:13       0.011     0.000
  jd32                    6.16     3.320      0  03:00      45.142     0.000
  jd35                    6.39     2.953      0  03:00      39.917     0.000
  jd36                    1.43     0.535      0  03:00       1.771     0.000
  jd37                    1.33     0.348      0  03:00       0.934     0.000
  jd39                    5.93     3.695      0  03:00      53.716     0.000
  jd40                    2.55     1.621      0  03:00      10.299     0.000
  jd41                    5.69     4.853      0  03:00      62.115     0.000
  jd43                    2.21     1.918      0  03:00      10.393     0.000
  jd44                    1.94     1.318      0  02:22       5.812     0.000
  jd45                    6.04     3.321      0  03:00      48.836     0.000
  jd50                    6.28     5.035      0  03:00      69.998     0.000
  jd51                    5.68     2.248      0  03:00      25.158     0.000
  jd52                    0.01     1.256      0  02:37       0.029     0.000
  jd53                    0.04     0.439      0  02:32       0.013     0.000
  jd55                    1.17     1.554      0  03:00       4.512     0.000
  jd59                    5.64     1.625      0  03:00      17.968     0.000
  jd60                    6.14     1.244      0  03:00      14.596     0.000
  jd64                    0.01     0.334      0  02:21       0.004     0.000
  jd65                    5.83     4.020      0  03:00      37.037     0.000
  jd66                    5.98     1.995      0  03:00      23.401     0.000
  jd79                    6.01     1.890      0  03:00      21.314     0.000
  jd80                    5.89     1.780      0  03:00      17.276     0.000
  jd83                    6.44     1.329      0  03:00      16.448     0.000
  jd85                    6.02     0.515      0  03:00       6.040     0.000
  jd87                    6.08     0.621      0  03:00       7.266     0.000
  jd93                    0.01     0.071      0  02:30       0.001     0.000
  jd96                    6.16     0.670      0  03:00       7.933     0.000
  jd99                    5.97     0.383      0  03:00       5.201     0.000
  jd106                   5.79     1.271      0  03:00      14.320     0.000
  jd110                   6.01     0.632      0  03:00       7.469     0.000
  jd114                   5.94     3.637      0  03:00      48.541     0.000
  jd117                   0.01     0.354      0  02:04       0.003     0.000
  jd122                   5.91     3.888      0  03:00      48.171     0.000
  jd123                   5.91     2.996      0  03:00      40.055     0.000
  jd124                   6.54     2.602      0  03:00      38.806     0.000
  jd125                   2.34     0.870      0  02:17       4.013     0.000
  jd126                   6.41     2.903      0  03:00      35.169     0.000
  
  
  ***********************
  Outfall Loading Summary
  ***********************
  
  -----------------------------------------------------------
                         Flow       Avg       Max       Total
                         Freq      Flow      Flow      Volume
  Outfall Node           Pcnt       CMS       CMS    10^6 ltr
  -----------------------------------------------------------
  psk1                  97.05     0.305     0.551       6.504
  psk2                  97.03     0.842     1.609      17.733
  psk3                  97.08     1.297     2.405      27.504
  psk4                   0.00     0.000     0.000       0.000
  psk5                  97.08     0.308     0.549       6.576
  psk6                  97.03     0.254     0.452       5.420
  psk7                  97.08     1.418     2.051      30.853
  psk8                   0.00     0.000     0.000       0.000
  -----------------------------------------------------------
  System                72.79     4.424     0.000      94.590
  
  
  ********************
  Link Flow Summary
  ********************
  
  -----------------------------------------------------------------------------
                                 Maximum  Time of Max   Maximum    Max/    Max/
                                  |Flow|   Occurrence   |Veloc|    Full    Full
  Link                 Type          CMS  days hr:min     m/sec    Flow   Depth
  -----------------------------------------------------------------------------
  GQ1                  CONDUIT     0.315     0  03:00      1.94    0.83    0.56
  GQ2                  CONDUIT     0.981     0  03:00      2.53    0.47    0.50
  GQ3                  CONDUIT     0.551     0  03:00      6.01    0.02    0.10
  GQ4                  CONDUIT     0.510     0  02:46      1.80    1.00    1.00
  GQ5                  CONDUIT     1.112     0  03:00      2.21    0.92    1.00
  GQ6                  CONDUIT     0.296     0  03:00      1.22    0.13    0.62
  GQ7                  CONDUIT     1.675     0  03:06      3.65    1.00    1.00
  GQ8                  CONDUIT     0.596     0  03:00      1.43    0.57    0.77
  GQ9                  CONDUIT     1.619     0  03:00      3.90    0.57    0.77
  GQ10                 CONDUIT     1.128     0  02:09      4.03    1.03    1.00
  GQ11                 CONDUIT     0.178     0  03:00      1.96    0.19    0.42
  GQ12                 CONDUIT     0.210     0  03:00      1.06    0.23    0.66
  GQ13                 CONDUIT     0.137     0  03:00      0.57    0.07    0.59
  GQ14                 CONDUIT     0.069     0  03:00      1.00    0.10    0.20
  GQ15                 CONDUIT     0.171     0  03:00      4.24    0.69    0.56
  GQ16                 CONDUIT     1.469     0  03:00      4.00    0.71    0.48
  GQ17                 CONDUIT     0.333     0  03:00      1.67    0.11    0.42
  GQ18                 CONDUIT     1.068     0  03:00      2.50    4.81    0.81
  GQ19                 CONDUIT     0.446     0  03:00      2.02    0.05    0.32
  GQ20                 CONDUIT     0.098     0  03:00      0.48    0.05    0.58
  GQ21                 CONDUIT     0.360     0  03:00      1.45    0.11    0.61
  GQ22                 CONDUIT     0.365     0  03:00      1.73    0.11    0.32
  GQ23                 CONDUIT     0.701     0  03:00      2.24    0.34    0.42
  GQ24                 CONDUIT     1.076     0  03:00      2.58    0.53    0.77
  GQ25                 CONDUIT     0.655     0  03:00      3.73    0.73    0.60
  GQ26                 CONDUIT     0.472     0  03:00      2.60    0.55    0.63
  GQ27                 CONDUIT     0.719     0  03:00      2.77    0.72    0.86
  GQ28                 CONDUIT     0.260     0  03:00      0.70    0.28    0.69
  GQ29                 CONDUIT     0.947     0  03:00      1.92    0.44    1.00
  GQ30                 CONDUIT     0.824     0  03:10      2.91    1.00    1.00
  GQ31                 CONDUIT     0.482     0  03:00      1.92    0.65    0.83
  GQ32                 CONDUIT     0.669     0  03:00      2.96    1.07    0.81
  GQ33                 CONDUIT     1.434     0  03:06      5.07    1.00    1.00
  GQ34                 CONDUIT     0.361     0  03:00      1.55    0.57    0.77
  GQ35                 CONDUIT     0.580     0  02:29      2.18    1.08    1.00
  GQ36                 CONDUIT     0.954     0  05:19      3.37    1.18    1.00
  GQ37                 CONDUIT     0.386     0  03:00      1.57    0.55    0.81
  GQ38                 CONDUIT     0.176     0  03:00      0.86    0.25    0.68
  GQ39                 CONDUIT     0.782     0  03:00      2.76    1.00    1.00
  GQ40                 CONDUIT     0.544     0  03:02      2.45    0.68    0.81
  GQ41                 CONDUIT     1.160     0  03:00      1.60    0.54    0.87
  GQ42                 CONDUIT     1.359     0  02:49      2.70    1.00    1.00
  GQ43                 CONDUIT     2.312     0  05:21      4.70    1.03    1.00
  GQ44                 CONDUIT     0.946     0  05:52      1.88    1.00    1.00
  GQ45                 CONDUIT     0.750     0  03:00      2.03    0.30    0.69
  GQ46                 CONDUIT     1.068     0  05:47      2.12    1.00    1.00
  GQ47                 CONDUIT     0.155     0  03:00      0.83    0.15    0.63
  GQ48                 CONDUIT     0.154     0  03:00      0.82    0.15    0.63
  GQ49                 CONDUIT     0.607     0  03:00      3.05    0.23    0.66
  GQ50                 CONDUIT     0.174     0  03:00      1.06    0.23    0.66
  GQ51                 CONDUIT     0.764     0  03:00      2.85    1.16    0.90
  GQ52                 CONDUIT     0.491     0  03:00      1.15    0.65    0.80
  GQ53                 CONDUIT     2.225     0  05:58      2.83    1.00    1.00
  GQ54                 CONDUIT     0.376     0  03:00      1.79    0.32    0.70
  GQ55                 CONDUIT     0.282     0  03:00      1.45    0.19    0.65
  GQ56                 CONDUIT     2.005     0  02:20      4.27    1.09    1.00
  GQ57                 CONDUIT     0.526     0  03:00      1.40    0.34    0.70
  GQ58                 CONDUIT     1.096     0  03:00      2.91    0.34    0.70
  GQ59                 CONDUIT     1.203     0  05:33      2.39    1.00    1.00
  GQ60                 CONDUIT     1.829     0  02:36      1.25    0.44    1.00
  GQ61                 CONDUIT     0.242     0  03:00      0.37    0.03    0.56
  GQ62                 CONDUIT     0.504     0  03:00      0.45    0.05    0.58
  GQ63                 CONDUIT     1.151     0  03:00      0.94    0.03    0.56
  GQ64                 CONDUIT     0.082     0  03:00      1.40    0.06    0.28
  GQ65                 CONDUIT     0.035     0  03:00      0.35    0.06    0.41
  GQ66                 CONDUIT     0.144     0  03:00      0.52    0.04    0.57
  GQ67                 CONDUIT     0.756     0  02:58      0.67    0.52    1.00
  GQ68                 CONDUIT     0.729     0  03:00      1.32    0.23    0.66
  GQ69                 CONDUIT     1.308     0  03:00      3.28    0.47    0.74
  GQ70                 CONDUIT     0.452     0  03:00      7.79    0.06    0.17
  GQ71                 CONDUIT     0.549     0  03:00      5.68    0.13    0.25
  GQ72                 CONDUIT     2.051     0  03:00      5.30    0.49    0.49
  GQ73                 CONDUIT     1.609     0  03:00     12.68    0.10    0.22
  GQ74                 CONDUIT     0.294     0  03:00      1.38    0.05    0.33
  GQ75                 CONDUIT     0.362     0  03:00      0.72    0.11    0.61
  GQ76                 CONDUIT     2.405     0  03:00      5.94    0.52    0.51
  GQ77                 CONDUIT     0.000     0  00:00      0.00    0.00    0.24
  GQ78                 CONDUIT     0.902     0  02:48      3.19    0.98    1.00
  GQ79                 CONDUIT     0.239     0  03:00      1.08    0.51    0.75
  GQ80                 CONDUIT     0.567     0  03:00      2.01    0.93    1.00
  GQ81                 CONDUIT     0.605     0  02:10      2.18    3.84    1.00
  GQ82                 CONDUIT     0.500     0  03:00      2.36    0.34    0.70
  GQ83                 CONDUIT     0.539     0  03:00      2.89    0.34    0.63
  GQ84                 CONDUIT     1.145     0  03:00      4.37    0.91    0.87
  GQ85                 CONDUIT     0.239     0  03:00      0.91    0.41    0.87
  GQ86                 CONDUIT     0.148     0  03:00      0.86    0.06    0.59
  GQ87                 CONDUIT     0.053     0  03:00      0.30    0.08    0.59
  GQ88                 CONDUIT     0.363     0  03:00      1.73    0.32    0.70
  GQ89                 CONDUIT     0.299     0  03:00      1.38    0.39    0.72
  GQ90                 CONDUIT     0.306     0  03:00      1.47    0.31    0.69
  GQ91                 CONDUIT     0.257     0  03:00      1.23    0.31    0.69
  GQ92                 CONDUIT     0.612     0  02:43      1.78    0.88    1.00
  GQ93                 CONDUIT     0.719     0  06:09      1.66    0.62    1.00
  GQ94                 CONDUIT     1.128     0  03:00      2.24    1.34    1.00
  GQ95                 CONDUIT     0.167     0  03:00      0.56    0.04    0.57
  GQ96                 CONDUIT     0.542     0  02:50      1.36    0.92    1.00
  GQ97                 CONDUIT     0.303     0  03:00      1.96    0.55    0.54
  GQ98                 CONDUIT     0.238     0  03:00      1.01    0.34    0.77
  GQ99                 CONDUIT     0.548     0  03:00      0.63    0.03    0.56
  GQ100                CONDUIT     0.393     0  03:00      2.89    0.68    0.49
  GQ101                CONDUIT     0.272     0  03:00      1.39    0.20    0.65
  GQ102                CONDUIT     1.101     0  03:00      2.93    0.33    0.70
  GQ103                CONDUIT     0.467     0  03:00      1.85    0.72    0.84
  GQ104                CONDUIT     0.970     0  03:00      3.95    0.70    0.81
  GQ105                CONDUIT     0.659     0  02:05      1.31    2.09    1.00
  GQ106                CONDUIT     0.301     0  03:00      1.45    0.30    0.69
  GQ107                CONDUIT     1.114     0  02:59      3.94    1.00    1.00
  GQ108                CONDUIT     0.829     0  05:50      1.65    1.00    1.00
  GQ109                CONDUIT     0.222     0  03:00      1.41    0.30    0.69
  GQ110                CONDUIT     0.366     0  03:00      0.78    0.05    0.58
  GQ111                CONDUIT     0.330     0  03:00      1.59    0.30    0.69
  GQ112                CONDUIT     1.008     0  03:00      2.98    0.18    0.34
  GQ113                CONDUIT     0.557     0  03:00      3.81    0.42    0.51
  GQ114                CONDUIT     0.334     0  02:56      0.60    0.14    0.66
  GQ115                CONDUIT     0.144     0  03:00      1.03    0.02    0.19
  GQ116                CONDUIT     0.208     0  03:00      0.46    0.03    0.56
  GQ117                CONDUIT     0.737     0  03:00      4.38    0.46    0.37
  GQ118                CONDUIT     0.279     0  03:00      2.02    0.09    0.38
  GQ119                CONDUIT     2.302     0  02:38      4.58    1.00    1.00
  GQ120                CONDUIT     0.000     0  00:00      0.00    0.00    0.50
  GQ121                CONDUIT     1.015     0  03:00      2.02    0.72    1.00
  GQ122                CONDUIT     0.423     0  03:00      1.36    0.08    0.59
  GQ123                CONDUIT     0.284     0  03:00      1.53    0.14    0.62
  GQ124                CONDUIT     0.177     0  03:00      1.07    0.08    0.39
  GQ125                CONDUIT     0.353     0  03:00      1.62    0.40    0.72
  GQ126                CONDUIT     0.435     0  03:00      1.98    0.42    0.72
  GQ127                CONDUIT     0.822     0  06:11      1.70    1.05    1.00
  GQ128                CONDUIT     1.482     0  03:00      2.90    0.32    0.70
  GQ129                CONDUIT     1.313     0  05:21      2.61    1.00    1.00
  GQ130                CONDUIT     1.073     0  02:25      3.79    1.00    1.00
  GQ131                CONDUIT     0.778     0  02:50      2.81    0.90    1.00
  
  
  ***************************
  Flow Classification Summary
  ***************************
  
  -------------------------------------------------------------------------------------
                      Adjusted    ---------- Fraction of Time in Flow Class ---------- 
                       /Actual         Up    Down  Sub   Sup   Up    Down  Norm  Inlet 
  Conduit               Length    Dry  Dry   Dry   Crit  Crit  Crit  Crit  Ltd   Ctrl  
  -------------------------------------------------------------------------------------
  GQ1                     1.00   0.03  0.00  0.00  0.02  0.95  0.00  0.00  0.00  0.00
  GQ2                     1.00   0.03  0.00  0.00  0.03  0.94  0.00  0.00  0.87  0.00
  GQ3                     1.00   0.03  0.00  0.00  0.00  0.97  0.00  0.00  0.24  0.00
  GQ4                     1.00   0.03  0.00  0.00  0.97  0.00  0.00  0.00  0.12  0.00
  GQ5                     1.00   0.03  0.00  0.00  0.97  0.00  0.00  0.00  0.56  0.00
  GQ6                     1.00   0.03  0.00  0.00  0.96  0.01  0.00  0.00  0.87  0.00
  GQ7                     1.00   0.03  0.00  0.00  0.70  0.27  0.00  0.00  0.10  0.00
  GQ8                     1.00   0.03  0.00  0.00  0.97  0.00  0.00  0.00  0.85  0.00
  GQ9                     1.00   0.03  0.00  0.00  0.37  0.60  0.00  0.00  0.87  0.00
  GQ10                    1.00   0.03  0.00  0.00  0.94  0.03  0.00  0.00  0.14  0.00
  GQ11                    1.00   0.03  0.00  0.00  0.10  0.87  0.00  0.00  0.87  0.00
  GQ12                    1.00   0.03  0.00  0.00  0.96  0.01  0.00  0.00  0.87  0.00
  GQ13                    1.00   0.03  0.00  0.00  0.97  0.00  0.00  0.00  0.87  0.00
  GQ14                    1.00   0.03  0.00  0.00  0.97  0.00  0.00  0.00  0.00  0.00
  GQ15                    1.00   0.03  0.00  0.00  0.00  0.97  0.00  0.00  0.02  0.00
  GQ16                    1.00   0.03  0.00  0.00  0.00  0.97  0.00  0.00  0.00  0.00
  GQ17                    1.00   0.03  0.00  0.00  0.65  0.32  0.00  0.00  0.87  0.00
  GQ18                    1.00   0.03  0.00  0.00  0.65  0.33  0.00  0.00  0.06  0.00
  GQ19                    1.00   0.03  0.00  0.00  0.45  0.53  0.00  0.00  0.87  0.00
  GQ20                    1.00   0.03  0.00  0.00  0.97  0.00  0.00  0.00  0.87  0.00
  GQ21                    1.00   0.03  0.00  0.00  0.72  0.25  0.00  0.00  0.87  0.00
  GQ22                    1.00   0.03  0.00  0.00  0.00  0.97  0.00  0.00  0.87  0.00
  GQ23                    1.00   0.03  0.00  0.00  0.01  0.97  0.00  0.00  0.26  0.00
  GQ24                    1.00   0.03  0.00  0.00  0.85  0.12  0.00  0.00  0.72  0.00
  GQ25                    1.00   0.03  0.00  0.00  0.00  0.97  0.00  0.00  0.01  0.00
  GQ26                    1.00   0.03  0.00  0.00  0.00  0.97  0.00  0.00  0.81  0.00
  GQ27                    1.00   0.03  0.00  0.00  0.55  0.42  0.00  0.00  0.60  0.00
  GQ28                    1.00   0.03  0.00  0.00  0.97  0.00  0.00  0.00  0.68  0.00
  GQ29                    1.00   0.03  0.00  0.00  0.97  0.00  0.00  0.00  0.13  0.00
  GQ30                    1.00   0.03  0.00  0.00  0.95  0.02  0.00  0.00  0.10  0.00
  GQ31                    1.00   0.03  0.00  0.00  0.97  0.00  0.00  0.00  0.65  0.00
  GQ32                    1.00   0.03  0.00  0.00  0.00  0.97  0.00  0.00  0.02  0.00
  GQ33                    1.00   0.03  0.00  0.00  0.39  0.58  0.00  0.00  0.40  0.00
  GQ34                    1.00   0.03  0.00  0.00  0.96  0.01  0.00  0.00  0.87  0.00
  GQ35                    1.00   0.03  0.00  0.00  0.40  0.57  0.00  0.00  0.47  0.00
  GQ36                    1.00   0.03  0.00  0.00  0.30  0.67  0.00  0.00  0.61  0.00
  GQ37                    1.00   0.03  0.00  0.00  0.97  0.00  0.00  0.00  0.63  0.00
  GQ38                    1.00   0.03  0.00  0.00  0.97  0.00  0.00  0.00  0.69  0.00
  GQ39                    1.00   0.03  0.00  0.00  0.94  0.03  0.00  0.00  0.63  0.00
  GQ40                    1.00   0.03  0.00  0.00  0.08  0.89  0.00  0.00  0.84  0.00
  GQ41                    1.00   0.03  0.00  0.00  0.97  0.00  0.00  0.00  0.42  0.00
  GQ42                    1.00   0.03  0.00  0.00  0.97  0.00  0.00  0.00  0.32  0.00
  GQ43                    1.00   0.03  0.00  0.00  0.35  0.62  0.00  0.00  0.59  0.00
  GQ44                    1.00   0.03  0.00  0.00  0.97  0.00  0.00  0.00  0.12  0.00
  GQ45                    1.00   0.03  0.00  0.00  0.76  0.21  0.00  0.00  0.87  0.00
  GQ46                    1.00   0.03  0.00  0.00  0.90  0.07  0.00  0.00  0.22  0.00
  GQ47                    1.00   0.03  0.00  0.00  0.97  0.00  0.00  0.00  0.87  0.00
  GQ48                    1.00   0.03  0.00  0.00  0.97  0.00  0.00  0.00  0.87  0.00
  GQ49                    1.00   0.03  0.00  0.00  0.55  0.42  0.00  0.00  0.87  0.00
  GQ50                    1.00   0.03  0.00  0.00  0.97  0.00  0.00  0.00  0.87  0.00
  GQ51                    1.00   0.03  0.00  0.00  0.01  0.96  0.00  0.00  0.50  0.00
  GQ52                    1.00   0.03  0.00  0.00  0.97  0.00  0.00  0.00  0.79  0.00
  GQ53                    1.00   0.03  0.00  0.00  0.97  0.00  0.00  0.00  0.33  0.00
  GQ54                    1.00   0.03  0.00  0.00  0.97  0.00  0.00  0.00  0.87  0.00
  GQ55                    1.00   0.03  0.00  0.00  0.97  0.00  0.00  0.00  0.87  0.00
  GQ56                    1.00   0.03  0.00  0.00  0.46  0.51  0.00  0.00  0.32  0.00
  GQ57                    1.00   0.03  0.00  0.00  0.97  0.00  0.00  0.00  0.87  0.00
  GQ58                    1.00   0.03  0.00  0.00  0.64  0.33  0.00  0.00  0.87  0.00
  GQ59                    1.00   0.03  0.00  0.00  0.97  0.00  0.00  0.00  0.33  0.00
  GQ60                    1.00   0.03  0.00  0.00  0.97  0.00  0.00  0.00  0.16  0.00
  GQ61                    1.00   0.03  0.00  0.00  0.97  0.00  0.00  0.00  0.87  0.00
  GQ62                    1.00   0.03  0.00  0.00  0.97  0.00  0.00  0.00  0.87  0.00
  GQ63                    1.00   0.03  0.00  0.00  0.96  0.01  0.00  0.00  0.87  0.00
  GQ64                    1.00   0.03  0.00  0.00  0.06  0.91  0.00  0.00  0.87  0.00
  GQ65                    1.00   0.03  0.00  0.00  0.97  0.00  0.00  0.00  0.87  0.00
  GQ66                    1.00   0.03  0.00  0.00  0.96  0.01  0.00  0.00  0.87  0.00
  GQ67                    1.00   0.03  0.00  0.00  0.97  0.00  0.00  0.00  0.07  0.00
  GQ68                    1.00   0.03  0.00  0.00  0.97  0.00  0.00  0.00  0.87  0.00
  GQ69                    1.00   0.03  0.00  0.00  0.59  0.38  0.00  0.00  0.87  0.00
  GQ70                    1.00   0.03  0.00  0.00  0.00  0.97  0.00  0.00  0.01  0.00
  GQ71                    1.00   0.03  0.00  0.00  0.00  0.97  0.00  0.00  0.05  0.00
  GQ72                    1.00   0.03  0.00  0.00  0.00  0.97  0.00  0.00  0.38  0.00
  GQ73                    1.00   0.03  0.00  0.00  0.00  0.97  0.00  0.00  0.02  0.00
  GQ74                    1.00   0.03  0.00  0.00  0.90  0.07  0.00  0.00  0.87  0.00
  GQ75                    1.00   0.03  0.00  0.00  0.97  0.00  0.00  0.00  0.87  0.00
  GQ76                    1.00   0.03  0.00  0.00  0.00  0.97  0.00  0.00  0.19  0.00
  GQ77                    1.00   0.03  0.97  0.00  0.00  0.00  0.00  0.00  0.00  0.00
  GQ78                    1.00   0.03  0.00  0.00  0.68  0.29  0.00  0.00  0.43  0.00
  GQ79                    1.00   0.03  0.00  0.00  0.97  0.00  0.00  0.00  0.10  0.00
  GQ80                    1.00   0.03  0.00  0.00  0.97  0.00  0.00  0.00  0.27  0.00
  GQ81                    1.00   0.03  0.00  0.00  0.97  0.00  0.00  0.00  0.00  0.00
  GQ82                    1.00   0.03  0.00  0.00  0.66  0.31  0.00  0.00  0.87  0.00
  GQ83                    1.00   0.03  0.00  0.00  0.00  0.97  0.00  0.00  0.87  0.00
  GQ84                    1.00   0.03  0.00  0.00  0.04  0.94  0.00  0.00  0.87  0.00
  GQ85                    1.00   0.03  0.00  0.00  0.97  0.00  0.00  0.00  0.33  0.00
  GQ86                    1.00   0.03  0.00  0.00  0.97  0.00  0.00  0.00  0.87  0.00
  GQ87                    1.00   0.03  0.00  0.00  0.97  0.00  0.00  0.00  0.87  0.00
  GQ88                    1.00   0.03  0.00  0.00  0.97  0.00  0.00  0.00  0.87  0.00
  GQ89                    1.00   0.03  0.00  0.00  0.96  0.01  0.00  0.00  0.87  0.00
  GQ90                    1.00   0.03  0.00  0.00  0.96  0.02  0.00  0.00  0.87  0.00
  GQ91                    1.00   0.03  0.00  0.00  0.96  0.01  0.00  0.00  0.87  0.00
  GQ92                    1.00   0.03  0.00  0.00  0.92  0.05  0.00  0.00  0.10  0.00
  GQ93                    1.00   0.03  0.00  0.00  0.97  0.00  0.00  0.00  0.70  0.00
  GQ94                    1.00   0.03  0.00  0.00  0.72  0.25  0.00  0.00  0.03  0.00
  GQ95                    1.00   0.03  0.00  0.00  0.97  0.00  0.00  0.00  0.87  0.00
  GQ96                    1.00   0.03  0.00  0.00  0.97  0.00  0.00  0.00  0.29  0.00
  GQ97                    1.00   0.03  0.00  0.00  0.00  0.97  0.00  0.00  0.29  0.00
  GQ98                    1.00   0.03  0.00  0.00  0.97  0.00  0.00  0.00  0.38  0.00
  GQ99                    1.00   0.03  0.00  0.00  0.96  0.01  0.00  0.00  0.87  0.00
  GQ100                   1.00   0.03  0.00  0.00  0.00  0.97  0.00  0.00  0.01  0.00
  GQ101                   1.00   0.03  0.00  0.00  0.96  0.01  0.00  0.00  0.87  0.00
  GQ102                   1.00   0.03  0.00  0.00  0.63  0.34  0.00  0.00  0.87  0.00
  GQ103                   1.00   0.03  0.00  0.00  0.97  0.00  0.00  0.00  0.69  0.00
  GQ104                   1.00   0.03  0.00  0.00  0.27  0.70  0.00  0.00  0.87  0.00
  GQ105                   1.00   0.03  0.00  0.00  0.97  0.00  0.00  0.00  0.09  0.00
  GQ106                   1.00   0.03  0.00  0.00  0.96  0.01  0.00  0.00  0.87  0.00
  GQ107                   1.00   0.03  0.00  0.00  0.32  0.65  0.00  0.00  0.65  0.00
  GQ108                   1.00   0.03  0.00  0.00  0.97  0.00  0.00  0.00  0.14  0.00
  GQ109                   1.00   0.03  0.00  0.00  0.91  0.06  0.00  0.00  0.87  0.00
  GQ110                   1.00   0.03  0.00  0.00  0.96  0.01  0.00  0.00  0.87  0.00
  GQ111                   1.00   0.03  0.00  0.00  0.96  0.01  0.00  0.00  0.87  0.00
  GQ112                   1.00   0.03  0.00  0.00  0.00  0.97  0.00  0.00  0.85  0.00
  GQ113                   1.00   0.03  0.00  0.00  0.00  0.97  0.00  0.00  0.85  0.00
  GQ114                   1.00   0.03  0.00  0.00  0.97  0.00  0.00  0.00  0.11  0.00
  GQ115                   1.00   0.03  0.00  0.00  0.95  0.02  0.00  0.00  0.87  0.00
  GQ116                   1.00   0.03  0.00  0.00  0.97  0.00  0.00  0.00  0.87  0.00
  GQ117                   1.00   0.03  0.00  0.00  0.00  0.97  0.00  0.00  0.00  0.00
  GQ118                   1.00   0.03  0.00  0.00  0.13  0.85  0.00  0.00  0.87  0.00
  GQ119                   1.00   0.03  0.00  0.00  0.64  0.33  0.00  0.00  0.36  0.00
  GQ120                   1.00   0.03  0.06  0.00  0.91  0.00  0.00  0.00  0.00  0.00
  GQ121                   1.00   0.03  0.00  0.00  0.96  0.01  0.00  0.00  0.11  0.00
  GQ122                   1.00   0.03  0.00  0.00  0.92  0.05  0.00  0.00  0.87  0.00
  GQ123                   1.00   0.03  0.00  0.00  0.92  0.05  0.00  0.00  0.87  0.00
  GQ124                   1.00   0.03  0.00  0.00  0.95  0.02  0.00  0.00  0.87  0.00
  GQ125                   1.00   0.03  0.00  0.00  0.96  0.01  0.00  0.00  0.87  0.00
  GQ126                   1.00   0.03  0.00  0.00  0.96  0.01  0.00  0.00  0.87  0.00
  GQ127                   1.00   0.03  0.00  0.00  0.97  0.00  0.00  0.00  0.55  0.00
  GQ128                   1.00   0.03  0.00  0.00  0.41  0.56  0.00  0.00  0.80  0.00
  GQ129                   1.00   0.03  0.00  0.00  0.97  0.00  0.00  0.00  0.14  0.00
  GQ130                   1.00   0.03  0.00  0.00  0.82  0.15  0.00  0.00  0.14  0.00
  GQ131                   1.00   0.03  0.00  0.00  0.75  0.22  0.00  0.00  0.60  0.00
  
  
  *************************
  Conduit Surcharge Summary
  *************************
  
  ----------------------------------------------------------------------------
                                                           Hours        Hours 
                         --------- Hours Full --------   Above Full   Capacity
  Conduit                Both Ends  Upstream  Dnstream   Normal Flow   Limited
  ----------------------------------------------------------------------------
  GQ4                         5.12      5.12      6.02      0.01         0.01
  GQ5                         1.18      1.18      5.92      0.01         0.01
  GQ6                         0.01      0.01      1.18      0.01         0.01
  GQ7                         4.11      4.11      4.35      0.01         0.01
  GQ8                         0.01      0.01      4.11      0.01         0.01
  GQ9                         0.01      0.01      6.28      0.01         0.01
  GQ10                        5.83      5.83      6.36      0.03         0.01
  GQ12                        0.01      0.01      5.83      0.01         0.01
  GQ13                        0.01      0.01      4.57      0.01         0.01
  GQ18                        0.01      0.01      5.86      5.88         0.01
  GQ20                        0.01      0.01      0.60      0.01         0.01
  GQ21                        0.01      0.01      0.60      0.01         0.01
  GQ24                        0.01      0.01      6.16      0.01         0.01
  GQ27                        0.01      0.01      5.86      0.01         0.01
  GQ28                        0.01      0.01      5.95      0.01         0.01
  GQ29                        5.78      5.78      5.95      0.01         0.01
  GQ30                        5.86      5.86      6.06      0.01         0.01
  GQ31                        0.01      0.01      6.39      0.01         0.01
  GQ32                        0.01      1.70      0.01      1.47         0.01
  GQ33                        1.70      1.70      6.39      0.01         0.01
  GQ34                        0.01      0.01      1.70      0.01         0.01
  GQ35                        1.51      1.51      1.70      0.14         0.01
  GQ36                        1.51      1.51      1.58      1.76         1.50
  GQ37                        0.01      0.01      6.25      0.01         0.01
  GQ38                        0.01      0.01      6.25      0.01         0.01
  GQ39                        0.35      0.35      5.83      0.01         0.01
  GQ40                        0.01      0.01      0.35      0.01         0.01
  GQ41                        0.01      0.01      5.93      0.01         0.01
  GQ42                        4.04      4.04      6.00      0.01         0.01
  GQ43                        1.85      1.85      4.04      0.20         0.01
  GQ44                        5.60      5.60      5.86      0.01         0.01
  GQ45                        0.01      0.01      4.10      0.01         0.01
  GQ46                        4.10      4.10      5.60      0.01         0.01
  GQ47                        0.01      0.01      6.02      0.01         0.01
  GQ48                        0.01      0.01      6.13      0.01         0.01
  GQ49                        0.01      0.01      6.13      0.01         0.01
  GQ50                        0.01      0.01      0.13      0.01         0.01
  GQ51                        0.01      0.13      0.01      0.62         0.01
  GQ52                        0.01      0.01      5.78      0.01         0.01
  GQ53                        3.96      3.96      6.05      0.01         0.01
  GQ54                        0.01      0.01      6.15      0.01         0.01
  GQ55                        0.01      0.01      6.15      0.01         0.01
  GQ56                        2.40      2.45      4.11      1.09         0.24
  GQ57                        0.01      0.01      2.45      0.01         0.01
  GQ58                        0.01      0.01      5.87      0.01         0.01
  GQ59                        4.04      4.04      5.87      0.01         0.01
  GQ60                        1.23      1.23      4.14      0.01         0.01
  GQ61                        0.01      0.01      5.64      0.01         0.01
  GQ62                        0.01      0.01      5.68      0.01         0.01
  GQ63                        0.01      0.01      5.70      0.01         0.01
  GQ66                        0.01      0.01      5.73      0.01         0.01
  GQ67                        5.65      5.65      5.69      0.01         0.01
  GQ68                        0.01      0.01      5.79      0.01         0.01
  GQ69                        0.01      0.01      5.98      0.01         0.01
  GQ75                        0.01      0.01      5.80      0.01         0.01
  GQ78                        1.76      1.76      6.21      0.01         0.01
  GQ79                        0.01      0.01      6.21      0.01         0.01
  GQ80                        1.76      1.76      5.89      0.01         0.01
  GQ81                        5.83      5.89      5.83      5.92         1.23
  GQ82                        0.01      0.01      5.83      0.01         0.01
  GQ84                        0.01      0.01      3.93      0.01         0.01
  GQ85                        0.01      0.01      6.44      0.01         0.01
  GQ86                        0.01      0.01      6.03      0.01         0.01
  GQ87                        0.01      0.01      6.03      0.01         0.01
  GQ88                        0.01      0.01      6.08      0.01         0.01
  GQ89                        0.01      0.01      5.84      0.01         0.01
  GQ90                        0.01      0.01      5.77      0.01         0.01
  GQ91                        0.01      0.01      5.89      0.01         0.01
  GQ92                        0.05      0.05      0.42      0.01         0.01
  GQ93                        0.42      0.42      1.73      0.01         0.01
  GQ94                        1.72      1.73      1.85      1.85         1.59
  GQ95                        0.01      0.01      6.16      0.01         0.01
  GQ96                        0.02      0.02      0.05      0.01         0.01
  GQ98                        0.01      0.01      5.97      0.01         0.01
  GQ99                        0.01      0.01      5.70      0.01         0.01
  GQ101                       0.01      0.01      5.89      0.01         0.01
  GQ102                       0.01      0.01      5.95      0.01         0.01
  GQ103                       0.01      0.01      6.09      0.01         0.01
  GQ104                       0.01      0.01      6.09      0.01         0.01
  GQ105                       5.91      5.91      5.95      5.51         0.01
  GQ106                       0.01      0.01      5.94      0.01         0.01
  GQ107                       0.35      0.35      5.94      0.01         0.01
  GQ108                       5.80      5.80      5.91      0.01         0.01
  GQ109                       0.01      0.01      0.35      0.01         0.01
  GQ110                       0.01      0.01      5.80      0.01         0.01
  GQ111                       0.01      0.01      5.89      0.01         0.01
  GQ114                       0.01      0.01      6.11      0.01         0.01
  GQ116                       0.01      0.01      6.01      0.01         0.01
  GQ119                       2.14      2.14      6.15      0.01         0.01
  GQ120                       0.01      0.01      6.07      0.01         0.01
  GQ121                       5.93      5.93      6.15      0.01         0.01
  GQ122                       0.01      0.01      5.93      0.01         0.01
  GQ123                       0.01      0.01      5.96      0.01         0.01
  GQ125                       0.01      0.01      5.89      0.01         0.01
  GQ126                       0.01      0.01      5.89      0.01         0.01
  GQ127                       1.85      1.85      2.14      0.25         0.17
  GQ128                       0.01      0.01      1.58      0.01         0.01
  GQ129                       4.35      4.35      6.16      0.01         0.01
  GQ130                       4.54      4.54      6.54      0.01         0.01
  GQ131                       0.13      0.13      6.41      0.01         0.01
  

  Analysis begun on:  Sat Mar 25 16:17:18 2023
  Analysis ended on:  Sat Mar 25 16:17:21 2023
  Total elapsed time: 00:00:03