
  OWA STORM WATER MANAGEMENT MODEL - VERSION v5.1.14 (OWA 2022-07-31)
  --------------------------------------------------------------

  INP file created by DSDAConvertToSwmmTools 
  version 0.0.1 EcoVista 
  Title/Notes: 
  
  
  *********************************************************
  NOTE: The summary statistics displayed in this report are
  based on results found at every computational time step,  
  not just on results from each reporting time step.
  *********************************************************
  
  ****************
  Analysis Options
  ****************
  Flow Units ............... CMS
  Process Models:
    Rainfall/Runoff ........ YES
    RDII ................... NO
    Snowmelt ............... NO
    Groundwater ............ NO
    Flow Routing ........... YES
    Ponding Allowed ........ NO
    Water Quality .......... NO
  Infiltration Method ...... GREEN_AMPT
  Flow Routing Method ...... DYNWAVE
  Surcharge Method ......... EXTRAN
  Starting Date ............ 07/15/2020 00:00:00
  Ending Date .............. 07/15/2020 07:00:00
  Antecedent Dry Days ...... 0.0
  Report Time Step ......... 00:30:00
  Wet Time Step ............ 00:05:00
  Dry Time Step ............ 01:00:00
  Routing Time Step ........ 30.00 sec
  Variable Time Step ....... YES
  Maximum Trials ........... 8
  Number of Threads ........ 1
  Head Tolerance ........... 0.001500 m
  
  
  **************************        Volume         Depth
  Runoff Quantity Continuity     hectare-m            mm
  **************************     ---------       -------
  Total Precipitation ......       145.072        36.300
  Evaporation Loss .........         2.238         0.560
  Infiltration Loss ........        38.770         9.701
  Surface Runoff ...........        96.070        24.038
  Final Storage ............         8.403         2.103
  Continuity Error (%) .....        -0.282
  
  
  **************************        Volume        Volume
  Flow Routing Continuity        hectare-m      10^6 ltr
  **************************     ---------     ---------
  Dry Weather Inflow .......         0.000         0.000
  Wet Weather Inflow .......        95.880       958.809
  Groundwater Inflow .......         0.000         0.000
  RDII Inflow ..............         0.000         0.000
  External Inflow ..........         0.000         0.000
  External Outflow .........         8.081        80.814
  Flooding Loss ............        86.185       861.860
  Evaporation Loss .........         0.000         0.000
  Exfiltration Loss ........         0.000         0.000
  Initial Stored Volume ....         0.000         0.000
  Final Stored Volume ......         1.471        14.709
  Continuity Error (%) .....         0.149
  
  
  *************************
  Highest Continuity Errors
  *************************
  Node jd51 (5.72%)
  Node jd59 (4.58%)
  Node jd64 (4.45%)
  Node jd31 (4.35%)
  Node jd41 (3.80%)
  
  
  ***************************
  Time-Step Critical Elements
  ***************************
  Link GQ73 (92.41%)
  
  
  ********************************
  Highest Flow Instability Indexes
  ********************************
  Link GQ67 (23)
  Link GQ29 (6)
  Link GQ96 (5)
  Link GQ121 (4)
  Link GQ44 (3)
  
  
  *************************
  Routing Time Step Summary
  *************************
  Minimum Time Step           :     3.90 sec
  Average Time Step           :     7.74 sec
  Maximum Time Step           :    30.00 sec
  Percent in Steady State     :     0.00
  Average Iterations per Step :     4.36
  Percent Not Converging      :    21.28
  
  
  ***************************
  Subcatchment Runoff Summary
  ***************************
  
  ------------------------------------------------------------------------------------------------------------------------------
                            Total      Total      Total      Total     Imperv       Perv      Total       Total     Peak  Runoff
                           Precip      Runon       Evap      Infil     Runoff     Runoff     Runoff      Runoff   Runoff   Coeff
  Subcatchment                 mm         mm         mm         mm         mm         mm         mm    10^6 ltr      CMS
  ------------------------------------------------------------------------------------------------------------------------------
  1                         36.30       0.00       0.34      20.34      14.58       0.00      14.58        5.77     1.11   0.402
  2                         36.30       0.00       0.60       7.73      25.59       0.00      25.59       23.14     4.51   0.705
  3                         36.30       0.00       0.62       6.62      26.90       0.00      26.90       10.76     2.09   0.741
  4                         36.30       0.00       0.64       5.69      27.94       0.00      27.94        2.34     0.45   0.770
  5                         36.30       0.00       0.57       9.25      24.69       0.00      24.69        3.05     0.59   0.680
  6                         36.30       0.00       0.55      10.40      23.70       0.00      23.70        2.20     0.42   0.653
  7                         36.30       0.00       0.57       9.29      24.32       0.00      24.32       10.60     2.07   0.670
  8                         36.30       0.00       0.72       2.03      31.00       0.00      31.00        4.32     0.84   0.854
  9                         36.30       0.00       0.74       1.01      32.00       0.00      32.00        3.75     0.73   0.882
  10                        36.30       0.00       0.64       5.90      27.58       0.00      27.58        6.21     1.21   0.760
  11                        36.30       0.00       0.69       3.47      29.65       0.00      29.65       14.70     2.87   0.817
  12                        36.30       0.00       0.54      10.44      23.46       0.00      23.46       11.45     2.23   0.646
  13                        36.30       0.00       0.68       3.91      29.28       0.00      29.28       13.24     2.58   0.807
  14                        36.30       0.00       0.68       3.96      29.39       0.00      29.39        5.55     1.08   0.810
  15                        36.30       0.00       0.63       6.38      27.11       0.00      27.11        9.16     1.78   0.747
  16                        36.30       0.00       0.65       5.27      28.06       0.00      28.06        8.29     1.62   0.773
  17                        36.30       0.00       0.61       7.25      26.32       0.00      26.32       11.01     2.14   0.725
  18                        36.30       0.00       0.70       2.86      30.20       0.00      30.20       12.47     2.43   0.832
  19                        36.30       0.00       0.70       2.99      30.05       0.00      30.05        6.76     1.32   0.828
  20                        36.30       0.00       0.70       3.19      29.67       0.00      29.67       15.92     3.11   0.817
  21                        36.30       0.00       0.74       1.07      31.79       0.00      31.79        9.98     1.95   0.876
  22                        36.30       0.00       0.73       1.71      31.17       0.00      31.17        3.83     0.75   0.859
  23                        36.30       0.00       0.67       4.44      28.69       0.00      28.69       16.43     3.21   0.790
  24                        36.30       0.00       0.65       5.54      27.68       0.00      27.68        4.91     0.96   0.762
  25                        36.30       0.00       0.69       3.41      29.83       0.00      29.83        6.04     1.18   0.822
  26                        36.30       0.00       0.59       8.28      25.14       0.00      25.14        8.82     1.72   0.692
  27                        36.30       0.00       0.71       2.72      30.10       0.00      30.10       12.72     2.48   0.829
  28                        36.30       0.00       0.72       2.00      30.84       0.00      30.84       14.58     2.85   0.850
  29                        36.30       0.00       0.65       5.63      27.88       0.00      27.88        6.51     1.26   0.768
  30                        36.30       0.00       0.74       1.23      31.99       0.00      31.99        2.29     0.44   0.881
  31                        36.30       0.00       0.75       0.76      32.13       0.00      32.13        7.08     1.38   0.885
  32                        36.30       0.00       0.73       1.62      31.31       0.00      31.31       13.53     2.64   0.862
  33                        36.30       0.00       0.74       1.18      31.64       0.00      31.64       11.15     2.18   0.872
  34                        36.30       0.00       0.69       3.68      29.49       0.00      29.49        8.64     1.69   0.812
  35                        36.30       0.00       0.71       2.74      30.31       0.00      30.31       12.57     2.45   0.835
  36                        36.30       0.00       0.58       8.65      25.10       0.00      25.10        9.88     1.92   0.691
  37                        36.30       0.00       0.72       1.96      31.00       0.00      31.00        6.88     1.34   0.854
  38                        36.30       0.00       0.68       4.11      29.13       0.00      29.13       11.11     2.16   0.802
  39                        36.30       0.00       0.61       7.22      26.38       0.00      26.38       11.14     2.17   0.727
  40                        36.30       0.00       0.68       3.93      29.28       0.00      29.28        6.69     1.30   0.807
  41                        36.30       0.00       0.70       3.20      30.05       0.00      30.05        5.93     1.15   0.828
  42                        36.30       0.00       0.70       3.23      29.69       0.00      29.69        7.33     1.43   0.818
  43                        36.30       0.00       0.59       8.49      25.05       0.00      25.05       19.80     3.86   0.690
  44                        36.30       0.00       0.62       6.62      26.72       0.00      26.72       12.92     2.52   0.736
  45                        36.30       0.00       0.59       8.42      25.18       0.00      25.18       18.22     3.55   0.694
  46                        36.30       0.00       0.57       9.38      24.50       0.00      24.50       12.25     2.37   0.675
  47                        36.30       0.00       0.60       8.03      25.53       0.00      25.53       29.76     5.80   0.703
  48                        36.30       0.00       0.71       2.51      30.25       0.00      30.25       17.55     3.43   0.833
  49                        36.30       0.00       0.65       5.38      27.71       0.00      27.71       18.76     3.66   0.763
  50                        36.30       0.00       0.72       2.04      30.48       0.00      30.48       11.98     2.33   0.840
  51                        36.30       0.00       0.69       3.53      29.22       0.00      29.22        5.47     1.06   0.805
  52                        36.30       0.00       0.34      20.36      14.63       0.00      14.63       15.01     2.89   0.403
  53                        36.30       0.00       0.49      13.22      21.05       0.00      21.05       22.42     4.34   0.580
  54                        36.30       0.00       0.60       7.82      25.82       0.00      25.82        6.30     1.22   0.711
  55                        36.30       0.00       0.34      19.99      14.96       0.00      14.96       11.80     2.27   0.412
  56                        36.30       0.00       0.13      30.15       5.74       0.00       5.74        4.68     0.88   0.158
  57                        36.30       0.00       0.68       4.04      28.90       0.00      28.90       24.01     4.69   0.796
  58                        36.30       0.00       0.63       6.41      27.07       0.00      27.07        4.46     0.87   0.746
  59                        36.30       0.00       0.61       7.13      26.63       0.00      26.63        3.39     0.66   0.734
  60                        36.30       0.00       0.23      25.37      10.11       0.00      10.11        2.89     0.55   0.278
  61                        36.30       0.00       0.36      19.30      15.48       0.00      15.48        5.83     1.13   0.426
  62                        36.30       0.00       0.50      12.63      21.38       0.00      21.38       25.05     4.87   0.589
  63                        36.30       0.00       0.68       4.00      28.80       0.00      28.80       55.70    10.84   0.793
  64                        36.30       0.00       0.51      12.21      21.91       0.00      21.91        4.70     0.91   0.604
  65                        36.30       0.00       0.69       3.54      29.25       0.00      29.25       19.67     3.84   0.806
  66                        36.30       0.00       0.54      10.50      23.24       0.00      23.24        5.92     1.15   0.640
  67                        36.30       0.00       0.51      12.19      21.99       0.00      21.99        7.11     1.37   0.606
  68                        36.30       0.00       0.61       7.37      26.27       0.00      26.27        2.92     0.57   0.724
  69                        36.30       0.00       0.36      19.32      15.66       0.00      15.66        5.01     0.96   0.431
  70                        36.30       0.00       0.50      12.41      21.65       0.00      21.65       17.81     3.46   0.596
  71                        36.30       0.00       0.62       6.78      26.79       0.00      26.79        3.29     0.64   0.738
  72                        36.30       0.00       0.66       5.18      28.23       0.00      28.23        3.52     0.68   0.778
  73                        36.30       0.00       0.59       8.11      25.71       0.00      25.71        4.27     0.83   0.708
  74                        36.30       0.00       0.57       9.43      24.48       0.00      24.48        5.27     1.02   0.674
  75                        36.30       0.00       0.63       6.43      27.13       0.00      27.13        3.91     0.76   0.747
  76                        36.30       0.00       0.66       4.87      28.58       0.00      28.58        2.77     0.54   0.787
  77                        36.30       0.00       0.71       2.79      30.34       0.00      30.34        3.28     0.64   0.836
  78                        36.30       0.00       0.68       3.97      29.24       0.00      29.24        3.21     0.63   0.806
  79                        36.30       0.00       0.30      22.12      13.04       0.00      13.04       13.83     2.65   0.359
  80                        36.30       0.00       0.56       9.58      24.10       0.00      24.10       15.09     2.94   0.664
  81                        36.30       0.00       0.57       9.16      24.45       0.00      24.45       10.66     2.08   0.674
  82                        36.30       0.00       0.55      10.31      23.43       0.00      23.43       21.48     4.18   0.646
  83                        36.30       0.00       0.68       3.81      29.49       0.00      29.49        3.60     0.70   0.812
  84                        36.30       0.00       0.65       5.64      27.75       0.00      27.75        3.31     0.65   0.764
  85                        36.30       0.00       0.76       0.28      32.73       0.00      32.73        3.04     0.59   0.902
  86                        36.30       0.00       0.70       3.06      30.10       0.00      30.10        4.43     0.86   0.829
  87                        36.30       0.00       0.75       0.78      32.06       0.00      32.06        4.22     0.82   0.883
  88                        36.30       0.00       0.67       4.53      28.86       0.00      28.86        2.76     0.54   0.795
  89                        36.30       0.00       0.70       2.92      30.28       0.00      30.28        5.83     1.13   0.834
  90                        36.30       0.00       0.76       0.01      33.10       0.00      33.10        0.38     0.07   0.912
  91                        36.30       0.00       0.64       6.08      27.09       0.00      27.09        5.91     1.15   0.746
  92                        36.30       0.00       0.70       2.82      30.32       0.00      30.32        3.79     0.74   0.835
  93                        36.30       0.00       0.57       9.02      24.70       0.00      24.70       12.64     2.46   0.680
  94                        36.30       0.00       0.52      11.76      22.52       0.00      22.52        1.58     0.30   0.620
  95                        36.30       0.00       0.76       0.04      32.93       0.00      32.93        0.72     0.14   0.907
  96                        36.30       0.00       0.62       7.03      26.62       0.00      26.62        3.25     0.63   0.733
  97                        36.30       0.00       0.75       0.77      32.20       0.00      32.20        3.20     0.62   0.887
  98                        36.30       0.00       0.62       6.86      26.80       0.00      26.80        3.30     0.64   0.738
  99                        36.30       0.00       0.31      21.72      13.43       0.00      13.43        4.99     0.96   0.370
  100                       36.30       0.00       0.34      20.09      14.93       0.00      14.93        3.83     0.73   0.411
  101                       36.30       0.00       0.35      19.69      15.22       0.00      15.22        7.46     1.44   0.419
  102                       36.30       0.00       0.57       9.23      24.56       0.00      24.56        5.99     1.16   0.677
  103                       36.30       0.00       0.19      27.25       8.44       0.00       8.44        3.07     0.58   0.232
  104                       36.30       0.00       0.13      30.18       5.69       0.00       5.69        5.51     1.05   0.157
  105                       36.30       0.00       0.63       6.45      27.17       0.00      27.17        3.55     0.69   0.748
  106                       36.30       0.00       0.34      20.13      14.86       0.00      14.86        3.63     0.70   0.409
  
  
  ******************
  Node Depth Summary
  ******************
  
  ---------------------------------------------------------------------------------
                                 Average  Maximum  Maximum  Time of Max    Reported
                                   Depth    Depth      HGL   Occurrence   Max Depth
  Node                 Type       Meters   Meters   Meters  days hr:min      Meters
  ---------------------------------------------------------------------------------
  jd1                  JUNCTION     0.14     0.26   273.26     0  03:00        0.26
  jd2                  JUNCTION     0.96     3.00   270.00     0  02:22        3.00
  jd3                  JUNCTION     2.72     3.00   266.00     0  02:14        3.00
  jd4                  JUNCTION     2.07     3.00   270.00     0  02:17        3.00
  jd5                  JUNCTION     0.10     0.19   274.19     0  03:00        0.19
  jd6                  JUNCTION     0.13     0.25   275.25     0  03:00        0.25
  jd7                  JUNCTION     0.39     0.65   264.75     0  03:00        0.65
  jd8                  JUNCTION     2.29     3.00   267.00     0  02:14        3.00
  jd9                  JUNCTION     2.06     3.00   268.00     0  02:15        3.00
  jd10                 JUNCTION     2.74     3.00   273.00     0  02:11        3.00
  jd11                 JUNCTION     0.11     0.23   282.23     0  03:00        0.23
  jd12                 JUNCTION     2.74     3.00   272.00     0  02:11        3.00
  jd13                 JUNCTION     0.14     0.30   289.30     0  03:00        0.30
  jd14                 JUNCTION     0.86     3.00   283.00     0  02:20        3.00
  jd15                 JUNCTION     0.34     0.71   278.71     0  03:00        0.71
  jd16                 JUNCTION     0.38     0.86   274.86     0  03:00        0.86
  jd17                 JUNCTION     2.55     3.00   278.80     0  02:16        3.00
  jd18                 JUNCTION     0.88     3.00   282.00     0  02:24        3.00
  jd19                 JUNCTION     1.63     3.00   270.00     0  02:15        3.00
  jd20                 JUNCTION     0.24     0.48   273.48     0  03:00        0.48
  jd21                 JUNCTION     2.72     3.00   273.00     0  02:14        3.00
  jd22                 JUNCTION     1.96     3.00   275.00     0  02:15        3.00
  jd23                 JUNCTION     0.73     3.00   281.00     0  02:26        3.00
  jd24                 JUNCTION     0.17     0.33   285.33     0  03:00        0.33
  jd25                 JUNCTION     0.64     3.00   282.00     0  02:30        2.80
  jd26                 JUNCTION     0.89     3.00   288.00     0  02:20        3.00
  jd27                 JUNCTION     0.66     3.00   294.00     0  02:29        3.00
  jd28                 JUNCTION     2.74     3.00   290.00     0  02:10        3.00
  jd29                 JUNCTION     0.11     0.23   299.23     0  03:00        0.23
  jd30                 JUNCTION     0.15     0.28   290.28     0  03:00        0.28
  jd31                 JUNCTION     1.21     3.00   275.00     0  02:19        2.39
  jd32                 JUNCTION     2.73     3.00   275.00     0  02:12        3.00
  jd33                 JUNCTION     0.23     0.48   289.48     0  03:00        0.48
  jd34                 JUNCTION     0.77     3.00   297.00     0  02:19        3.00
  jd35                 JUNCTION     2.75     3.00   292.00     0  02:09        3.00
  jd36                 JUNCTION     1.04     3.00   302.00     0  02:19        3.00
  jd37                 JUNCTION     1.02     3.00   306.00     0  02:17        3.00
  jd38                 JUNCTION     0.80     3.00   300.00     0  02:27        3.00
  jd39                 JUNCTION     2.72     3.00   297.00     0  02:14        3.00
  jd40                 JUNCTION     1.46     3.00   302.00     0  02:21        3.00
  jd41                 JUNCTION     2.69     3.00   296.00     0  02:20        3.00
  jd42                 JUNCTION     0.24     0.54   305.54     0  03:00        0.54
  jd43                 JUNCTION     1.25     3.00   300.00     0  02:15        3.00
  jd44                 JUNCTION     1.33     3.00   286.00     0  02:19        3.00
  jd45                 JUNCTION     2.72     3.00   282.00     0  02:14        3.00
  jd46                 JUNCTION     0.67     3.00   278.00     0  02:35        3.00
  jd47                 JUNCTION     0.19     0.36   315.36     0  03:00        0.36
  jd48                 JUNCTION     0.13     0.26   325.26     0  03:00        0.26
  jd49                 JUNCTION     0.65     3.00   292.00     0  02:34        3.00
  jd50                 JUNCTION     2.74     3.00   278.00     0  02:10        3.00
  jd51                 JUNCTION     2.68     3.00   313.00     0  02:20        3.00
  jd52                 JUNCTION     0.81     3.00   326.00     0  02:24        2.06
  jd53                 JUNCTION     1.05     3.00   325.00     0  02:23        3.00
  jd54                 JUNCTION     0.37     0.86   326.86     0  03:00        0.86
  jd55                 JUNCTION     1.77     3.00   325.00     0  02:18        3.00
  jd56                 JUNCTION     0.24     0.55   327.55     0  03:00        0.55
  jd59                 JUNCTION     2.67     3.00   320.80     0  02:21        3.00
  jd60                 JUNCTION     2.74     3.00   319.00     0  02:11        3.00
  jd61                 JUNCTION     0.17     0.36   329.36     0  03:00        0.36
  jd62                 JUNCTION     0.07     0.15   335.15     0  03:00        0.15
  jd63                 JUNCTION     0.08     0.16   324.16     0  03:00        0.16
  jd64                 JUNCTION     2.53     3.00   321.00     0  02:20        3.00
  jd65                 JUNCTION     2.43     3.00   307.00     0  02:11        3.00
  jd66                 JUNCTION     2.73     3.00   304.00     0  02:12        3.00
  jd69                 JUNCTION     0.29     0.64   333.64     0  03:00        0.64
  jd79                 JUNCTION     2.74     3.00   274.00     0  02:11        3.00
  jd80                 JUNCTION     2.63     3.00   279.00     0  02:11        3.00
  jd81                 JUNCTION     0.18     0.38   288.38     0  03:00        0.38
  jd83                 JUNCTION     2.76     3.00   323.00     0  02:07        3.00
  jd84                 JUNCTION     0.81     3.00   326.00     0  02:16        3.00
  jd85                 JUNCTION     2.74     3.00   324.00     0  02:10        3.00
  jd87                 JUNCTION     2.74     3.00   322.00     0  02:11        3.00
  jd89                 JUNCTION     0.21     0.50   324.50     0  03:00        0.50
  jd90                 JUNCTION     0.17     0.35   328.35     0  03:00        0.35
  jd92                 JUNCTION     0.19     0.50   326.50     0  03:00        0.50
  jd93                 JUNCTION     1.08     3.00   327.00     0  02:20        3.00
  jd94                 JUNCTION     0.68     3.00   329.20     0  02:23        2.33
  jd95                 JUNCTION     0.82     3.00   330.00     0  02:20        2.87
  jd96                 JUNCTION     2.75     3.00   308.00     0  02:09        3.00
  jd97                 JUNCTION     0.85     3.00   330.20     0  02:20        3.00
  jd98                 JUNCTION     0.29     1.77   330.77     0  02:34        0.94
  jd99                 JUNCTION     2.73     3.00   327.00     0  02:12        3.00
  jd101                JUNCTION     0.13     0.25   321.25     0  03:00        0.25
  jd102                JUNCTION     0.72     3.00   327.00     0  02:24        3.00
  jd103                JUNCTION     0.13     0.27   318.27     0  03:00        0.27
  jd106                JUNCTION     2.71     3.00   287.00     0  02:16        3.00
  jd107                JUNCTION     0.25     0.51   332.51     0  03:00        0.51
  jd108                JUNCTION     1.20     2.54   328.54     0  02:10        1.70
  jd109                JUNCTION     0.20     0.44   343.44     0  03:00        0.44
  jd110                JUNCTION     2.75     3.00   327.00     0  02:10        3.00
  jd111                JUNCTION     0.09     0.17   344.17     0  03:00        0.17
  jd112                JUNCTION     0.11     0.22   334.22     0  03:00        0.22
  jd113                JUNCTION     0.12     0.24   348.24     0  03:00        0.24
  jd114                JUNCTION     2.72     3.00   317.00     0  02:14        3.00
  jd117                JUNCTION     1.48     3.00   319.00     0  02:15        3.00
  jd118                JUNCTION     0.11     0.22   330.22     0  03:00        0.22
  jd120                JUNCTION     0.32     3.00   330.00     0  02:35        1.45
  jd121                JUNCTION     0.20     0.47   320.47     0  03:00        0.47
  jd122                JUNCTION     2.72     3.00   276.00     0  02:14        3.00
  jd123                JUNCTION     2.71     3.00   276.20     0  02:15        3.00
  jd124                JUNCTION     2.76     3.00   271.00     0  02:07        3.00
  jd125                JUNCTION     1.84     3.00   278.00     0  02:17        3.00
  jd126                JUNCTION     2.75     3.00   275.00     0  02:08        3.00
  jd135                JUNCTION     0.18     0.42   289.42     0  03:00        0.42
  jd136                JUNCTION     0.62     3.00   344.00     0  02:31        2.85
  psk1                 OUTFALL      0.11     0.21   279.21     0  03:00        0.21
  psk2                 OUTFALL      0.15     0.28   270.28     0  03:00        0.28
  psk3                 OUTFALL      0.39     1.00   272.00     0  02:40        1.00
  psk4                 OUTFALL      0.00     0.00   280.00     0  00:00        0.00
  psk5                 OUTFALL      0.14     0.26   263.26     0  03:00        0.26
  psk6                 OUTFALL      0.10     0.19   259.19     0  03:00        0.19
  psk7                 OUTFALL      0.39     0.65   262.65     0  03:00        0.65
  psk8                 OUTFALL      0.00     0.00   317.00     0  00:00        0.00
  
  
  *******************
  Node Inflow Summary
  *******************
  
  -------------------------------------------------------------------------------------------------
                                  Maximum  Maximum                  Lateral       Total        Flow
                                  Lateral    Total  Time of Max      Inflow      Inflow     Balance
                                   Inflow   Inflow   Occurrence      Volume      Volume       Error
  Node                 Type           CMS      CMS  days hr:min    10^6 ltr    10^6 ltr     Percent
  -------------------------------------------------------------------------------------------------
  jd1                  JUNCTION     1.114    1.461     0  03:00        5.76        8.55       0.258
  jd2                  JUNCTION     1.720    2.232     0  03:00        8.81        11.8       0.379
  jd3                  JUNCTION     2.067    3.786     0  03:00        10.6        27.5       1.413
  jd4                  JUNCTION     2.484    2.743     0  03:00        12.7        14.1       0.479
  jd5                  JUNCTION     0.729    1.107     0  03:00        3.74        6.16       0.109
  jd6                  JUNCTION     0.841    0.841     0  03:00        4.31        4.31       0.137
  jd7                  JUNCTION     0.425    3.181     0  03:00         2.2          25       0.306
  jd8                  JUNCTION     0.591    1.537     0  03:00        3.05          16       1.538
  jd9                  JUNCTION     0.454    1.521     0  03:00        2.34          15       0.431
  jd10                 JUNCTION     1.208    1.524     0  03:00         6.2        7.85       1.267
  jd11                 JUNCTION     1.784    1.784     0  03:00        9.14        9.14       0.142
  jd12                 JUNCTION     1.343    3.002     0  03:00        6.87        15.1       0.913
  jd13                 JUNCTION     2.433    2.433     0  03:00        12.4        12.4       0.131
  jd14                 JUNCTION     2.849    3.236     0  03:00        14.6        16.4       0.266
  jd15                 JUNCTION     1.175    2.136     0  03:00        6.03        12.4       0.823
  jd16                 JUNCTION     1.264    4.796     0  03:00        6.49        24.9       0.308
  jd17                 JUNCTION     2.640    5.093     0  03:00        13.5        30.8       2.617
  jd18                 JUNCTION     2.095    3.072     0  03:00        10.7        15.7       0.410
  jd19                 JUNCTION     1.945    3.430     0  03:00        9.98          19       0.354
  jd20                 JUNCTION     1.615    1.865     0  03:00        8.27        12.1       0.571
  jd21                 JUNCTION     0.749    3.733     0  03:00        3.83        25.9       1.312
  jd22                 JUNCTION     1.319    2.315     0  03:00        6.74        13.6       0.574
  jd23                 JUNCTION     1.305    3.901     0  03:00        6.68        19.3       0.139
  jd24                 JUNCTION     2.144    2.144     0  03:00          11          11       0.152
  jd25                 JUNCTION     1.685    2.465     0  03:00        8.63        12.5       0.318
  jd26                 JUNCTION     2.453    3.700     0  03:00        12.5        20.1       0.287
  jd27                 JUNCTION     2.521    3.144     0  03:00        12.9        19.1       0.304
  jd28                 JUNCTION     3.428    4.338     0  03:00        17.5        23.5       0.555
  jd29                 JUNCTION     1.381    1.381     0  03:00        7.07        7.07       0.057
  jd30                 JUNCTION     1.433    3.440     0  03:00        7.32        19.8       0.170
  jd31                 JUNCTION     0.958    1.782     0  03:00         4.9        10.2       4.548
  jd32                 JUNCTION     1.948    5.281     0  03:00        9.96        36.8       0.682
  jd33                 JUNCTION     1.919    2.984     0  03:00        9.86        16.1       0.172
  jd34                 JUNCTION     2.374    2.374     0  03:00        12.2        12.2       0.119
  jd35                 JUNCTION     2.166    4.347     0  03:00        11.1        30.9       0.415
  jd36                 JUNCTION     3.661    4.729     0  03:00        18.7        27.7       0.319
  jd37                 JUNCTION     3.856    3.856     0  03:00        19.8        19.8       0.249
  jd38                 JUNCTION     3.548    4.355     0  03:00        18.2        26.5       0.483
  jd39                 JUNCTION     2.460    5.979     0  03:00        12.6        42.8       1.184
  jd40                 JUNCTION     4.185    6.376     0  03:00        21.4        42.8       0.481
  jd41                 JUNCTION     2.942    9.073     0  03:00        15.1        54.5       3.950
  jd42                 JUNCTION     3.836    4.208     0  03:00        19.6        21.6       0.344
  jd43                 JUNCTION     4.337    6.748     0  03:00        22.4        37.1       0.520
  jd44                 JUNCTION     5.797    8.673     0  03:00        29.7        58.5       0.483
  jd45                 JUNCTION     2.329    4.554     0  03:00          12        35.8       0.892
  jd46                 JUNCTION     1.065    1.065     0  03:00        5.46        5.46       0.934
  jd47                 JUNCTION     3.464    3.464     0  03:00        17.8        17.8      -0.006
  jd48                 JUNCTION     0.959    0.959     0  03:00           5           5       0.144
  jd49                 JUNCTION     4.685    4.685     0  03:00          24          24       0.246
  jd50                 JUNCTION     4.874    8.804     0  03:00          25        59.9       0.691
  jd51                 JUNCTION     1.021    4.606     0  03:00        5.26          24       6.071
  jd52                 JUNCTION     2.077    6.197     0  02:24        10.6          29       0.450
  jd53                 JUNCTION     1.152    4.411     0  03:00         5.9        27.3       0.245
  jd54                 JUNCTION     0.623    3.092     0  03:00        3.19        15.9       0.342
  jd55                 JUNCTION     1.135    4.995     0  03:00        5.82        21.9       3.733
  jd56                 JUNCTION     0.689    2.017     0  03:00        3.55        10.4       0.237
  jd59                 JUNCTION     0.684    3.219     0  03:00        3.51        16.7       4.796
  jd60                 JUNCTION     1.225    2.598     0  03:00        6.28        13.4       0.968
  jd61                 JUNCTION     1.374    1.545     0  03:00        7.09        7.99       0.169
  jd62                 JUNCTION     0.553    0.553     0  03:00        2.89        2.89       0.047
  jd63                 JUNCTION     0.760    0.760     0  03:00         3.9         3.9       0.086
  jd64                 JUNCTION     0.640    1.579     0  03:00        3.28        8.09       4.657
  jd65                 JUNCTION    10.841   10.841     0  03:00        55.6        55.6       0.195
  jd66                 JUNCTION     1.435    4.163     0  03:00        7.44        21.6       1.502
  jd69                 JUNCTION     2.654    2.728     0  03:00        13.8        14.2       0.218
  jd79                 JUNCTION     2.582    3.498     0  03:00        13.2        21.2       0.830
  jd80                 JUNCTION     2.867    3.475     0  03:00        14.7        18.8       0.807
  jd81                 JUNCTION     2.178    2.178     0  03:00        11.1        11.1       0.053
  jd83                 JUNCTION     2.272    2.850     0  03:00        11.8        15.3       0.567
  jd84                 JUNCTION     2.887    2.887     0  03:00          15          15       0.168
  jd85                 JUNCTION     0.656    1.073     0  03:00        3.38        5.56       1.523
  jd87                 JUNCTION     0.537    1.296     0  03:00        2.76        6.68       1.108
  jd89                 JUNCTION     0.626    0.626     0  03:00        3.21        3.21       0.215
  jd90                 JUNCTION     0.639    0.639     0  03:00        3.28        3.28       0.152
  jd92                 JUNCTION     0.537    0.537     0  03:00        2.76        2.76       0.098
  jd93                 JUNCTION     1.154    2.125     0  03:00        5.91          12       0.402
  jd94                 JUNCTION     0.074    1.149     0  02:23       0.379         6.1       0.252
  jd95                 JUNCTION     0.140    1.081     0  02:23       0.717        5.75       0.549
  jd96                 JUNCTION     1.047    1.397     0  03:00         5.5        7.29       1.292
  jd97                 JUNCTION     1.131    1.131     0  03:00        5.82        5.82       0.117
  jd98                 JUNCTION     0.631    0.631     0  03:00        3.25        3.25       0.143
  jd99                 JUNCTION     0.304    0.629     0  03:00        1.57        4.24       1.336
  jd101                JUNCTION     0.827    1.527     0  03:00        4.26        8.26       0.035
  jd102                JUNCTION     0.823    0.823     0  03:00        4.21        4.21       0.232
  jd103                JUNCTION     0.567    0.567     0  03:00        2.91        2.91       0.043
  jd106                JUNCTION     0.444    2.511     0  03:00        2.29        13.1       3.035
  jd107                JUNCTION     0.641    2.106     0  03:00         3.3        10.8       0.313
  jd108                JUNCTION     0.697    0.697     0  03:00        3.62        3.63       1.790
  jd109                JUNCTION     1.164    1.164     0  03:00        5.98        5.98       0.062
  jd110                JUNCTION     0.885    1.317     0  03:00        4.67        6.92       2.205
  jd111                JUNCTION     0.734    0.734     0  03:00        3.82        3.82       0.077
  jd112                JUNCTION     0.864    2.400     0  03:00        4.42        12.4       0.118
  jd113                JUNCTION     0.581    0.581     0  03:00        3.06        3.06      -0.004
  jd114                JUNCTION     0.701    4.417     0  03:00         3.6        35.2       0.887
  jd117                JUNCTION     0.645    2.105     0  03:00        3.31        10.9       1.408
  jd118                JUNCTION     0.591    0.591     0  03:00        3.04        3.04       0.010
  jd120                JUNCTION     0.738    0.738     0  03:00        3.78        3.78       0.090
  jd121                JUNCTION     0.911    0.911     0  03:00         4.7         4.7       0.133
  jd122                JUNCTION     2.165    6.708     0  03:00        11.1        41.5       1.342
  jd123                JUNCTION     2.226    4.763     0  03:00        11.4        37.5       1.867
  jd124                JUNCTION     3.207    4.280     0  03:00        16.4        31.7       0.180
  jd125                JUNCTION     3.109    4.784     0  03:00        15.9        37.9       0.219
  jd126                JUNCTION     4.508    5.371     0  03:00        23.1        30.2       0.328
  jd135                JUNCTION     1.152    1.152     0  03:00        5.91        5.91       0.094
  jd136                JUNCTION     0.955    1.536     0  03:00        4.98        8.03       0.300
  psk1                 OUTFALL      0.000    1.168     0  03:00           0        5.97       0.000
  psk2                 OUTFALL      0.000    2.635     0  03:00           0        14.8       0.000
  psk3                 OUTFALL      0.000    4.790     0  03:00           0        24.8       0.000
  psk4                 OUTFALL      0.000    0.000     0  00:00           0           0       0.000 ltr
  psk5                 OUTFALL      0.000    0.948     0  03:00           0        5.54       0.000
  psk6                 OUTFALL      0.000    0.849     0  03:00           0        4.72       0.000
  psk7                 OUTFALL      0.000    3.181     0  03:00           0        24.9       0.000
  psk8                 OUTFALL      0.000    0.000     0  00:00           0           0       0.000 ltr
  
  
  **********************
  Node Surcharge Summary
  **********************
  
  Surcharging occurs when water rises above the top of the highest conduit.
  ---------------------------------------------------------------------
                                               Max. Height   Min. Depth
                                   Hours       Above Crown    Below Rim
  Node                 Type      Surcharged         Meters       Meters
  ---------------------------------------------------------------------
  jd2                  JUNCTION        0.99          2.200        0.000
  jd3                  JUNCTION        4.76          2.200        0.000
  jd4                  JUNCTION        3.36          2.200        0.000
  jd8                  JUNCTION        4.75          2.200        0.000
  jd9                  JUNCTION        3.81          2.200        0.000
  jd10                 JUNCTION        4.81          2.400        0.000
  jd12                 JUNCTION        4.81          2.400        0.000
  jd14                 JUNCTION        0.88          2.400        0.000
  jd17                 JUNCTION        4.73          2.200        0.000
  jd18                 JUNCTION        0.85          2.000        0.000
  jd19                 JUNCTION        2.87          2.200        0.000
  jd21                 JUNCTION        4.75          2.200        0.000
  jd22                 JUNCTION        4.75          2.400        0.000
  jd23                 JUNCTION        0.74          2.000        0.000
  jd25                 JUNCTION        0.59          2.000        0.000
  jd26                 JUNCTION        0.90          2.400        0.000
  jd27                 JUNCTION        0.61          2.400        0.000
  jd28                 JUNCTION        4.82          2.400        0.000
  jd31                 JUNCTION        4.68          2.200        0.000
  jd32                 JUNCTION        4.79          2.200        0.000
  jd34                 JUNCTION        0.77          2.400        0.000
  jd35                 JUNCTION        4.85          2.400        0.000
  jd36                 JUNCTION        1.14          2.400        0.000
  jd37                 JUNCTION        1.09          2.400        0.000
  jd38                 JUNCTION        0.67          2.000        0.000
  jd39                 JUNCTION        4.76          2.000        0.000
  jd40                 JUNCTION        2.73          2.200        0.000
  jd41                 JUNCTION        4.66          1.000        0.000
  jd43                 JUNCTION        1.32          2.200        0.000
  jd44                 JUNCTION        1.54          2.000        0.000
  jd45                 JUNCTION        4.76          2.000        0.000
  jd46                 JUNCTION        0.56          2.200        0.000
  jd49                 JUNCTION        0.52          2.200        0.000
  jd50                 JUNCTION        4.82          2.200        0.000
  jd51                 JUNCTION        4.67          1.350        0.000
  jd52                 JUNCTION        0.94          1.500        0.000
  jd53                 JUNCTION        1.05          1.800        0.000
  jd55                 JUNCTION        2.74          1.500        0.000
  jd59                 JUNCTION        4.65          1.500        0.000
  jd60                 JUNCTION        4.82          2.400        0.000
  jd64                 JUNCTION        4.66          1.800        0.000
  jd65                 JUNCTION        3.96          2.400        0.000
  jd66                 JUNCTION        4.79          2.200        0.000
  jd79                 JUNCTION        4.82          2.400        0.000
  jd80                 JUNCTION        4.81          2.400        0.000
  jd83                 JUNCTION        4.87          2.400        0.000
  jd84                 JUNCTION        0.84          2.400        0.000
  jd85                 JUNCTION        4.82          2.400        0.000
  jd87                 JUNCTION        4.81          2.400        0.000
  jd93                 JUNCTION        1.15          2.200        0.000
  jd94                 JUNCTION        0.89          2.200        0.000
  jd95                 JUNCTION        0.84          2.200        0.000
  jd96                 JUNCTION        4.85          2.200        0.000
  jd97                 JUNCTION        0.85          2.200        0.000
  jd98                 JUNCTION        0.45          1.169        1.231
  jd99                 JUNCTION        4.80          2.400        0.000
  jd102                JUNCTION        0.69          2.400        0.000
  jd106                JUNCTION        4.73          2.000        0.000
  jd108                JUNCTION        4.82          1.544        0.456
  jd110                JUNCTION        4.82          2.000        0.000
  jd114                JUNCTION        4.77          2.000        0.000
  jd117                JUNCTION        4.74          2.200        0.000
  jd120                JUNCTION        0.45          2.400        0.000
  jd122                JUNCTION        4.77          2.200        0.000
  jd123                JUNCTION        4.75          2.200        0.000
  jd124                JUNCTION        4.88          2.400        0.000
  jd125                JUNCTION        3.06          2.200        0.000
  jd126                JUNCTION        4.86          2.400        0.000
  jd136                JUNCTION        0.51          2.200        0.000
  
  
  *********************
  Node Flooding Summary
  *********************
  
  Flooding refers to all water that overflows a node, whether it ponds or not.
  --------------------------------------------------------------------------
                                                             Total   Maximum
                                 Maximum   Time of Max       Flood    Ponded
                        Hours       Rate    Occurrence      Volume     Depth
  Node                 Flooded       CMS   days hr:min    10^6 ltr    Meters
  --------------------------------------------------------------------------
  jd2                     0.80     1.023      0  03:00       2.165     0.000
  jd3                     4.76     3.786      0  03:00      27.153     0.000
  jd4                     2.79     2.232      0  03:00       6.700     0.000
  jd8                     1.43     0.898      0  02:14       1.292     0.000
  jd9                     1.31     1.182      0  02:15       1.978     0.000
  jd10                    4.81     1.524      0  03:00       7.756     0.000
  jd12                    4.81     3.002      0  03:00      14.948     0.000
  jd14                    0.79     1.413      0  03:00       2.948     0.000
  jd17                    3.34     4.264      0  03:00      16.568     0.000
  jd18                    0.74     1.548      0  03:00       3.454     0.000
  jd19                    1.08     2.362      0  03:00       6.367     0.000
  jd21                    4.75     3.733      0  03:00      25.294     0.000
  jd22                    1.16     1.492      0  03:00       4.253     0.000
  jd23                    0.56     0.885      0  03:00       1.515     0.000
  jd25                    0.01     0.862      0  02:30       0.016     0.000
  jd26                    0.84     1.804      0  03:00       4.243     0.000
  jd27                    0.49     0.399      0  02:29       0.326     0.000
  jd28                    4.82     4.338      0  03:00      23.362     0.000
  jd31                    0.01     1.544      0  02:19       0.021     0.000
  jd32                    4.79     5.281      0  03:00      36.555     0.000
  jd34                    0.73     0.561      0  03:00       1.159     0.000
  jd35                    4.85     4.347      0  03:00      30.767     0.000
  jd36                    0.99     2.672      0  03:00       6.423     0.000
  jd37                    0.98     2.509      0  03:00       5.933     0.000
  jd38                    0.40     0.703      0  02:27       0.191     0.000
  jd39                    4.76     5.979      0  03:00      42.335     0.000
  jd40                    1.32     3.814      0  03:00      11.197     0.000
  jd41                    4.66     9.073      0  03:00      52.420     0.000
  jd43                    1.21     4.917      0  03:00      14.197     0.000
  jd44                    1.08     4.773      0  03:00      12.408     0.000
  jd45                    4.76     4.554      0  03:00      35.443     0.000
  jd46                    0.46     0.295      0  02:35       0.306     0.000
  jd49                    0.48     0.803      0  03:00       1.040     0.000
  jd50                    4.82     8.804      0  03:00      59.491     0.000
  jd51                    4.66     4.606      0  03:00      22.622     0.000
  jd52                    0.02     3.904      0  02:24       0.130     0.000
  jd53                    0.79     2.109      0  03:00       4.826     0.000
  jd55                    0.94     4.995      0  03:00      12.489     0.000
  jd59                    4.65     3.219      0  03:00      15.965     0.000
  jd60                    4.82     2.598      0  03:00      13.271     0.000
  jd64                    0.61     1.029      0  02:20       0.239     0.000
  jd65                    3.89     9.747      0  03:00      37.386     0.000
  jd66                    4.79     4.163      0  03:00      21.276     0.000
  jd79                    4.82     3.248      0  03:00      17.204     0.000
  jd80                    4.07     3.317      0  03:00      15.479     0.000
  jd83                    4.87     2.850      0  03:00      15.181     0.000
  jd84                    0.80     1.047      0  03:00       2.566     0.000
  jd85                    4.82     1.073      0  03:00       5.476     0.000
  jd87                    4.81     1.296      0  03:00       6.605     0.000
  jd93                    0.76     0.947      0  03:00       2.144     0.000
  jd94                    0.01     0.568      0  02:23       0.009     0.000
  jd95                    0.01     0.156      0  02:20       0.002     0.000
  jd96                    4.85     1.397      0  03:00       7.202     0.000
  jd97                    0.67     0.373      0  03:00       0.779     0.000
  jd99                    4.80     0.629      0  03:00       4.184     0.000
  jd102                   0.60     0.123      0  03:00       0.200     0.000
  jd106                   4.73     2.511      0  03:00      12.723     0.000
  jd110                   4.82     1.317      0  03:00       6.772     0.000
  jd114                   4.77     4.417      0  03:00      34.856     0.000
  jd117                   0.80     1.136      0  02:15       1.573     0.000
  jd120                   0.01     0.037      0  02:35       0.000     0.000
  jd122                   4.77     6.708      0  03:00      40.818     0.000
  jd123                   4.75     4.448      0  03:00      31.539     0.000
  jd124                   4.88     4.279      0  03:00      31.663     0.000
  jd125                   1.25     2.398      0  03:00       6.436     0.000
  jd126                   4.86     5.370      0  03:00      30.081     0.000
  jd136                   0.01     0.136      0  02:31       0.002     0.000
  
  
  ***********************
  Outfall Loading Summary
  ***********************
  
  -----------------------------------------------------------
                         Flow       Avg       Max       Total
                         Freq      Flow      Flow      Volume
  Outfall Node           Pcnt       CMS       CMS    10^6 ltr
  -----------------------------------------------------------
  psk1                  95.58     0.407     1.168       5.974
  psk2                  94.90     1.006     2.635      14.840
  psk3                  95.95     1.678     4.790      24.844
  psk4                   0.00     0.000     0.000       0.000
  psk5                  95.45     0.368     0.948       5.536
  psk6                  95.02     0.318     0.849       4.720
  psk7                  95.88     1.555     3.181      24.900
  psk8                   0.00     0.000     0.000       0.000
  -----------------------------------------------------------
  System                71.60     5.332     0.000      80.813
  
  
  ********************
  Link Flow Summary
  ********************
  
  -----------------------------------------------------------------------------
                                 Maximum  Time of Max   Maximum    Max/    Max/
                                  |Flow|   Occurrence   |Veloc|    Full    Full
  Link                 Type          CMS  days hr:min     m/sec    Flow   Depth
  -----------------------------------------------------------------------------
  GQ1                  CONDUIT     0.355     0  02:26      1.96    0.93    0.72
  GQ2                  CONDUIT     1.788     0  03:00      2.81    0.85    0.78
  GQ3                  CONDUIT     1.168     0  03:00      7.50    0.04    0.14
  GQ4                  CONDUIT     0.510     0  02:37      1.80    1.00    1.00
  GQ5                  CONDUIT     1.208     0  02:41      2.40    1.00    1.00
  GQ6                  CONDUIT     0.512     0  03:00      1.45    0.23    0.66
  GQ7                  CONDUIT     1.699     0  02:17      3.59    1.01    1.00
  GQ8                  CONDUIT     1.045     0  03:02      2.08    1.00    1.00
  GQ9                  CONDUIT     2.837     0  02:41      5.73    1.00    1.00
  GQ10                 CONDUIT     1.134     0  06:11      4.10    1.04    1.00
  GQ11                 CONDUIT     0.372     0  03:00      2.46    0.40    0.67
  GQ12                 CONDUIT     0.466     0  03:00      2.04    0.51    0.75
  GQ13                 CONDUIT     0.258     0  03:00      0.79    0.12    0.62
  GQ14                 CONDUIT     0.146     0  03:00      1.29    0.21    0.28
  GQ15                 CONDUIT     0.248     0  02:31      4.43    1.00    0.82
  GQ16                 CONDUIT     2.007     0  03:00      4.10    0.97    0.64
  GQ17                 CONDUIT     0.695     0  03:00      2.36    0.22    0.57
  GQ18                 CONDUIT     1.114     0  03:00      2.50    5.02    0.91
  GQ19                 CONDUIT     0.947     0  03:00      2.90    0.11    0.44
  GQ20                 CONDUIT     0.208     0  03:00      0.57    0.11    0.61
  GQ21                 CONDUIT     0.770     0  03:00      1.73    0.24    0.67
  GQ22                 CONDUIT     0.780     0  03:00      1.93    0.24    0.67
  GQ23                 CONDUIT     1.825     0  03:00      2.34    0.89    1.00
  GQ24                 CONDUIT     2.020     0  02:45      4.02    1.00    1.00
  GQ25                 CONDUIT     1.065     0  03:00      4.13    1.19    0.90
  GQ26                 CONDUIT     0.781     0  02:29      3.00    0.91    0.90
  GQ27                 CONDUIT     0.997     0  02:37      3.52    1.00    1.00
  GQ28                 CONDUIT     0.378     0  03:00      0.88    0.41    0.80
  GQ29                 CONDUIT     1.782     0  03:00      3.55    0.83    1.00
  GQ30                 CONDUIT     0.824     0  03:05      2.91    1.00    1.00
  GQ31                 CONDUIT     0.747     0  02:40      2.64    1.00    1.00
  GQ32                 CONDUIT     0.739     0  02:28      2.94    1.19    1.00
  GQ33                 CONDUIT     1.434     0  02:39      5.07    1.00    1.00
  GQ34                 CONDUIT     0.528     0  02:59      1.92    0.83    0.95
  GQ35                 CONDUIT     0.711     0  02:19      2.52    1.32    1.00
  GQ36                 CONDUIT     0.974     0  02:18      3.45    1.21    1.00
  GQ37                 CONDUIT     0.699     0  02:56      2.47    1.00    1.00
  GQ38                 CONDUIT     0.212     0  03:00      0.95    0.30    0.73
  GQ39                 CONDUIT     0.782     0  02:40      2.76    1.00    1.00
  GQ40                 CONDUIT     0.804     0  02:41      2.84    1.00    1.00
  GQ41                 CONDUIT     2.160     0  02:59      2.75    1.00    1.00
  GQ42                 CONDUIT     1.359     0  02:55      2.70    1.00    1.00
  GQ43                 CONDUIT     2.302     0  03:34      4.70    1.03    1.00
  GQ44                 CONDUIT     0.946     0  03:08      1.88    1.00    1.00
  GQ45                 CONDUIT     1.485     0  03:00      3.44    0.60    0.80
  GQ46                 CONDUIT     1.147     0  02:15      2.33    1.07    1.00
  GQ47                 CONDUIT     0.315     0  03:00      1.52    0.30    0.69
  GQ48                 CONDUIT     0.313     0  03:00      1.51    0.30    0.69
  GQ49                 CONDUIT     1.346     0  03:00      5.90    0.51    0.75
  GQ50                 CONDUIT     0.387     0  03:00      1.70    0.51    0.75
  GQ51                 CONDUIT     0.995     0  02:27      3.64    1.52    1.00
  GQ52                 CONDUIT     0.854     0  03:03      1.70    1.14    1.00
  GQ53                 CONDUIT     2.225     0  03:05      2.83    1.00    1.00
  GQ54                 CONDUIT     0.786     0  03:00      3.24    0.67    0.80
  GQ55                 CONDUIT     0.587     0  03:00      2.70    0.40    0.72
  GQ56                 CONDUIT     1.994     0  02:18      4.30    1.09    1.00
  GQ57                 CONDUIT     1.150     0  03:00      2.56    0.75    0.84
  GQ58                 CONDUIT     2.515     0  03:00      5.61    0.79    0.84
  GQ59                 CONDUIT     1.203     0  02:46      2.39    1.00    1.00
  GQ60                 CONDUIT     3.361     0  02:24      2.32    0.81    1.00
  GQ61                 CONDUIT     0.467     0  03:00      0.83    0.06    0.58
  GQ62                 CONDUIT     1.048     0  03:00      1.02    0.10    0.61
  GQ63                 CONDUIT     2.415     0  03:00      2.08    0.07    0.59
  GQ64                 CONDUIT     0.171     0  03:00      1.74    0.13    0.42
  GQ65                 CONDUIT     0.074     0  03:00      0.43    0.13    0.62
  GQ66                 CONDUIT     0.301     0  03:00      1.08    0.09    0.60
  GQ67                 CONDUIT     1.442     0  03:01      1.28    1.00    1.00
  GQ68                 CONDUIT     1.691     0  03:00      2.59    0.54    0.78
  GQ69                 CONDUIT     2.728     0  03:00      5.73    0.97    0.90
  GQ70                 CONDUIT     0.849     0  03:00      9.37    0.12    0.24
  GQ71                 CONDUIT     0.948     0  03:00      6.63    0.23    0.33
  GQ72                 CONDUIT     3.181     0  03:00      5.86    0.76    0.65
  GQ73                 CONDUIT     2.635     0  03:00     14.62    0.17    0.28
  GQ74                 CONDUIT     0.615     0  03:00      1.75    0.11    0.54
  GQ75                 CONDUIT     0.593     0  03:00      1.12    0.17    0.64
  GQ76                 CONDUIT     4.790     0  03:00      6.71    1.04    0.93
  GQ77                 CONDUIT     0.000     0  00:00      0.00    0.00    0.35
  GQ78                 CONDUIT     0.916     0  03:02      3.24    1.00    1.00
  GQ79                 CONDUIT     0.253     0  02:29      1.08    0.54    0.90
  GQ80                 CONDUIT     0.608     0  02:38      2.15    1.00    1.00
  GQ81                 CONDUIT     0.605     0  02:14      2.24    3.83    1.00
  GQ82                 CONDUIT     1.047     0  03:00      4.24    0.72    0.81
  GQ83                 CONDUIT     1.130     0  03:00      4.58    0.72    0.81
  GQ84                 CONDUIT     1.302     0  02:15      4.75    1.03    1.00
  GQ85                 CONDUIT     0.579     0  02:47      2.05    1.00    1.00
  GQ86                 CONDUIT     0.308     0  03:00      1.67    0.13    0.62
  GQ87                 CONDUIT     0.109     0  03:00      0.57    0.16    0.64
  GQ88                 CONDUIT     0.759     0  03:00      3.13    0.67    0.80
  GQ89                 CONDUIT     0.625     0  03:00      2.30    0.82    0.92
  GQ90                 CONDUIT     0.639     0  03:00      2.66    0.64    0.79
  GQ91                 CONDUIT     0.537     0  03:00      1.98    0.66    0.91
  GQ92                 CONDUIT     1.080     0  02:23      2.39    1.56    1.00
  GQ93                 CONDUIT     0.971     0  03:00      1.93    0.83    1.00
  GQ94                 CONDUIT     1.375     0  02:22      2.74    1.63    1.00
  GQ95                 CONDUIT     0.350     0  03:00      1.11    0.09    0.60
  GQ96                 CONDUIT     0.957     0  02:23      1.90    1.63    1.00
  GQ97                 CONDUIT     0.631     0  03:00      2.31    1.14    0.96
  GQ98                 CONDUIT     0.326     0  03:00      1.17    0.46    0.96
  GQ99                 CONDUIT     1.059     0  03:00      1.36    0.06    0.58
  GQ100                CONDUIT     0.700     0  03:00      3.31    1.20    0.71
  GQ101                CONDUIT     0.567     0  03:00      2.57    0.42    0.73
  GQ102                CONDUIT     2.213     0  03:00      5.13    0.67    0.80
  GQ103                CONDUIT     0.640     0  03:00      2.26    0.98    1.00
  GQ104                CONDUIT     1.389     0  02:28      5.02    1.01    1.00
  GQ105                CONDUIT     0.899     0  02:15      1.79    2.86    1.00
  GQ106                CONDUIT     0.594     0  03:00      2.52    0.59    0.78
  GQ107                CONDUIT     1.114     0  02:30      3.94    1.00    1.00
  GQ108                CONDUIT     0.829     0  02:48      1.65    1.00    1.00
  GQ109                CONDUIT     0.443     0  03:00      1.74    0.60    0.85
  GQ110                CONDUIT     0.766     0  03:00      1.52    0.11    0.61
  GQ111                CONDUIT     0.709     0  03:00      2.76    0.65    0.85
  GQ112                CONDUIT     2.106     0  03:00      3.49    0.38    0.57
  GQ113                CONDUIT     1.164     0  03:00      4.86    0.88    0.79
  GQ114                CONDUIT     0.697     0  03:00      1.07    0.29    0.78
  GQ115                CONDUIT     0.302     0  03:00      1.26    0.04    0.28
  GQ116                CONDUIT     0.433     0  03:00      0.91    0.06    0.58
  GQ117                CONDUIT     1.536     0  03:00      4.93    0.96    0.63
  GQ118                CONDUIT     0.581     0  03:00      2.68    0.20    0.65
  GQ119                CONDUIT     2.302     0  02:31      4.58    1.00    1.00
  GQ120                CONDUIT     0.000     0  00:00      0.00    0.00    0.50
  GQ121                CONDUIT     1.414     0  03:05      2.81    1.00    1.00
  GQ122                CONDUIT     0.868     0  03:00      2.58    0.16    0.63
  GQ123                CONDUIT     0.591     0  03:00      2.88    0.28    0.68
  GQ124                CONDUIT     0.364     0  03:00      1.35    0.16    0.63
  GQ125                CONDUIT     0.738     0  03:00      2.61    0.83    1.00
  GQ126                CONDUIT     0.911     0  03:00      3.43    0.87    0.89
  GQ127                CONDUIT     0.821     0  03:26      1.63    1.05    1.00
  GQ128                CONDUIT     3.090     0  03:00      3.37    0.67    0.86
  GQ129                CONDUIT     1.313     0  02:48      2.61    1.00    1.00
  GQ130                CONDUIT     1.073     0  02:26      3.79    1.00    1.00
  GQ131                CONDUIT     0.862     0  02:29      3.05    1.00    1.00
  
  
  ***************************
  Flow Classification Summary
  ***************************
  
  -------------------------------------------------------------------------------------
                      Adjusted    ---------- Fraction of Time in Flow Class ---------- 
                       /Actual         Up    Down  Sub   Sup   Up    Down  Norm  Inlet 
  Conduit               Length    Dry  Dry   Dry   Crit  Crit  Crit  Crit  Ltd   Ctrl  
  -------------------------------------------------------------------------------------
  GQ1                     1.00   0.04  0.00  0.00  0.27  0.70  0.00  0.00  0.00  0.00
  GQ2                     1.00   0.04  0.00  0.00  0.15  0.81  0.00  0.00  0.82  0.00
  GQ3                     1.00   0.04  0.00  0.00  0.01  0.95  0.00  0.00  0.18  0.00
  GQ4                     1.00   0.04  0.00  0.00  0.96  0.01  0.00  0.00  0.23  0.00
  GQ5                     1.00   0.04  0.00  0.00  0.96  0.00  0.00  0.00  0.65  0.00
  GQ6                     1.00   0.04  0.00  0.00  0.94  0.02  0.00  0.00  0.85  0.00
  GQ7                     1.00   0.04  0.00  0.00  0.58  0.38  0.00  0.00  0.11  0.00
  GQ8                     1.00   0.04  0.00  0.00  0.96  0.00  0.00  0.00  0.73  0.00
  GQ9                     1.00   0.04  0.00  0.00  0.73  0.23  0.00  0.00  0.75  0.00
  GQ10                    1.00   0.04  0.00  0.00  0.81  0.16  0.00  0.00  0.27  0.00
  GQ11                    1.00   0.04  0.00  0.00  0.28  0.68  0.00  0.00  0.75  0.00
  GQ12                    1.00   0.04  0.00  0.00  0.95  0.01  0.00  0.00  0.85  0.00
  GQ13                    1.00   0.04  0.01  0.00  0.95  0.00  0.00  0.00  0.85  0.00
  GQ14                    1.00   0.04  0.00  0.00  0.78  0.18  0.00  0.00  0.00  0.00
  GQ15                    1.00   0.04  0.00  0.00  0.00  0.96  0.00  0.00  0.02  0.00
  GQ16                    1.00   0.04  0.00  0.00  0.02  0.94  0.00  0.00  0.00  0.00
  GQ17                    1.00   0.04  0.00  0.00  0.66  0.30  0.00  0.00  0.85  0.00
  GQ18                    1.00   0.04  0.00  0.00  0.63  0.33  0.00  0.00  0.15  0.00
  GQ19                    1.00   0.04  0.00  0.00  0.58  0.38  0.00  0.00  0.85  0.00
  GQ20                    1.00   0.04  0.00  0.00  0.96  0.00  0.00  0.00  0.85  0.00
  GQ21                    1.00   0.04  0.00  0.00  0.70  0.27  0.00  0.00  0.85  0.00
  GQ22                    1.00   0.04  0.00  0.00  0.26  0.70  0.00  0.00  0.85  0.00
  GQ23                    1.00   0.04  0.00  0.00  0.28  0.68  0.00  0.00  0.16  0.00
  GQ24                    1.00   0.04  0.00  0.00  0.93  0.04  0.00  0.00  0.71  0.00
  GQ25                    1.00   0.04  0.00  0.00  0.00  0.96  0.00  0.00  0.01  0.00
  GQ26                    1.00   0.04  0.00  0.00  0.04  0.92  0.00  0.00  0.70  0.00
  GQ27                    1.00   0.04  0.00  0.00  0.89  0.07  0.00  0.00  0.68  0.00
  GQ28                    1.00   0.04  0.00  0.00  0.96  0.00  0.00  0.00  0.72  0.00
  GQ29                    1.00   0.04  0.00  0.00  0.96  0.00  0.00  0.00  0.17  0.00
  GQ30                    1.00   0.04  0.00  0.00  0.94  0.02  0.00  0.00  0.12  0.00
  GQ31                    1.00   0.04  0.00  0.00  0.96  0.00  0.00  0.00  0.71  0.00
  GQ32                    1.00   0.04  0.00  0.00  0.24  0.72  0.00  0.00  0.01  0.00
  GQ33                    1.00   0.04  0.00  0.00  0.46  0.50  0.00  0.00  0.63  0.00
  GQ34                    1.00   0.04  0.00  0.00  0.95  0.02  0.00  0.00  0.74  0.00
  GQ35                    1.00   0.04  0.00  0.00  0.38  0.58  0.00  0.00  0.51  0.00
  GQ36                    1.00   0.04  0.00  0.00  0.30  0.66  0.00  0.00  0.53  0.00
  GQ37                    1.00   0.04  0.00  0.00  0.96  0.00  0.00  0.00  0.69  0.00
  GQ38                    1.00   0.04  0.01  0.00  0.96  0.00  0.00  0.00  0.70  0.00
  GQ39                    1.00   0.04  0.00  0.00  0.94  0.03  0.00  0.00  0.67  0.00
  GQ40                    1.00   0.04  0.00  0.00  0.28  0.69  0.00  0.00  0.73  0.00
  GQ41                    1.00   0.04  0.00  0.00  0.96  0.00  0.00  0.00  0.64  0.00
  GQ42                    1.00   0.04  0.00  0.00  0.96  0.00  0.00  0.00  0.40  0.00
  GQ43                    1.00   0.04  0.00  0.00  0.35  0.61  0.00  0.00  0.67  0.00
  GQ44                    1.00   0.04  0.00  0.00  0.96  0.00  0.00  0.00  0.22  0.00
  GQ45                    1.00   0.04  0.00  0.00  0.50  0.46  0.00  0.00  0.74  0.00
  GQ46                    1.00   0.04  0.00  0.00  0.88  0.08  0.00  0.00  0.23  0.00
  GQ47                    1.00   0.04  0.00  0.00  0.96  0.00  0.00  0.00  0.85  0.00
  GQ48                    1.00   0.04  0.00  0.00  0.96  0.00  0.00  0.00  0.85  0.00
  GQ49                    1.00   0.04  0.00  0.00  0.62  0.35  0.00  0.00  0.85  0.00
  GQ50                    1.00   0.04  0.00  0.00  0.96  0.01  0.00  0.00  0.85  0.00
  GQ51                    1.00   0.04  0.00  0.00  0.25  0.71  0.00  0.00  0.54  0.00
  GQ52                    1.00   0.04  0.00  0.00  0.96  0.00  0.00  0.00  0.59  0.00
  GQ53                    1.00   0.04  0.00  0.00  0.96  0.00  0.00  0.00  0.42  0.00
  GQ54                    1.00   0.04  0.00  0.00  0.73  0.23  0.00  0.00  0.85  0.00
  GQ55                    1.00   0.04  0.00  0.00  0.74  0.23  0.00  0.00  0.85  0.00
  GQ56                    1.00   0.04  0.00  0.00  0.35  0.61  0.00  0.00  0.48  0.00
  GQ57                    1.00   0.04  0.00  0.00  0.96  0.00  0.00  0.00  0.79  0.00
  GQ58                    1.00   0.04  0.00  0.00  0.65  0.32  0.00  0.00  0.84  0.00
  GQ59                    1.00   0.04  0.00  0.00  0.96  0.00  0.00  0.00  0.42  0.00
  GQ60                    1.00   0.04  0.00  0.00  0.96  0.00  0.00  0.00  0.18  0.00
  GQ61                    1.00   0.04  0.00  0.00  0.96  0.00  0.00  0.00  0.85  0.00
  GQ62                    1.00   0.04  0.00  0.00  0.96  0.01  0.00  0.00  0.86  0.00
  GQ63                    1.00   0.04  0.00  0.00  0.94  0.02  0.00  0.00  0.86  0.00
  GQ64                    1.00   0.04  0.00  0.00  0.20  0.77  0.00  0.00  0.85  0.00
  GQ65                    1.00   0.04  0.00  0.00  0.96  0.00  0.00  0.00  0.85  0.00
  GQ66                    1.00   0.04  0.00  0.00  0.95  0.01  0.00  0.00  0.85  0.00
  GQ67                    1.00   0.04  0.00  0.00  0.96  0.00  0.00  0.00  0.15  0.00
  GQ68                    1.00   0.04  0.00  0.00  0.96  0.00  0.00  0.00  0.77  0.00
  GQ69                    1.00   0.04  0.00  0.00  0.62  0.34  0.00  0.00  0.85  0.00
  GQ70                    1.00   0.05  0.00  0.00  0.01  0.94  0.00  0.00  0.00  0.00
  GQ71                    1.00   0.04  0.00  0.00  0.01  0.95  0.00  0.00  0.05  0.00
  GQ72                    1.00   0.04  0.00  0.00  0.00  0.96  0.00  0.00  0.36  0.00
  GQ73                    1.00   0.04  0.00  0.00  0.02  0.94  0.00  0.00  0.00  0.00
  GQ74                    1.00   0.04  0.00  0.00  0.91  0.05  0.00  0.00  0.85  0.00
  GQ75                    1.00   0.04  0.01  0.00  0.96  0.00  0.00  0.00  0.85  0.00
  GQ76                    1.00   0.04  0.00  0.00  0.00  0.96  0.00  0.00  0.29  0.00
  GQ77                    1.00   0.04  0.96  0.00  0.00  0.00  0.00  0.00  0.00  0.00
  GQ78                    1.00   0.04  0.00  0.00  0.90  0.06  0.00  0.00  0.64  0.00
  GQ79                    1.00   0.04  0.00  0.00  0.96  0.00  0.00  0.00  0.17  0.00
  GQ80                    1.00   0.04  0.00  0.00  0.96  0.00  0.00  0.00  0.33  0.00
  GQ81                    1.00   0.04  0.00  0.00  0.96  0.00  0.00  0.00  0.00  0.00
  GQ82                    1.00   0.04  0.00  0.00  0.63  0.33  0.00  0.00  0.85  0.00
  GQ83                    1.00   0.04  0.00  0.00  0.00  0.96  0.00  0.00  0.84  0.00
  GQ84                    1.00   0.04  0.00  0.00  0.23  0.73  0.00  0.00  0.71  0.00
  GQ85                    1.00   0.04  0.00  0.00  0.96  0.00  0.00  0.00  0.41  0.00
  GQ86                    1.00   0.04  0.00  0.00  0.96  0.00  0.00  0.00  0.85  0.00
  GQ87                    1.00   0.04  0.00  0.00  0.96  0.00  0.00  0.00  0.85  0.00
  GQ88                    1.00   0.04  0.00  0.00  0.73  0.23  0.00  0.00  0.85  0.00
  GQ89                    1.00   0.04  0.00  0.00  0.95  0.01  0.00  0.00  0.74  0.00
  GQ90                    1.00   0.04  0.00  0.00  0.73  0.23  0.00  0.00  0.85  0.00
  GQ91                    1.00   0.04  0.00  0.00  0.95  0.01  0.00  0.00  0.73  0.00
  GQ92                    1.00   0.04  0.00  0.00  0.93  0.03  0.00  0.00  0.02  0.00
  GQ93                    1.00   0.04  0.00  0.00  0.96  0.00  0.00  0.00  0.70  0.00
  GQ94                    1.00   0.04  0.00  0.00  0.67  0.30  0.00  0.00  0.02  0.00
  GQ95                    1.00   0.04  0.00  0.00  0.96  0.00  0.00  0.00  0.85  0.00
  GQ96                    1.00   0.04  0.00  0.00  0.96  0.01  0.00  0.00  0.33  0.00
  GQ97                    1.00   0.04  0.00  0.00  0.20  0.77  0.00  0.00  0.22  0.00
  GQ98                    1.00   0.04  0.00  0.00  0.96  0.00  0.00  0.00  0.66  0.00
  GQ99                    1.00   0.04  0.00  0.00  0.95  0.01  0.00  0.00  0.85  0.00
  GQ100                   1.00   0.04  0.00  0.00  0.02  0.95  0.00  0.00  0.00  0.00
  GQ101                   1.00   0.04  0.00  0.00  0.74  0.22  0.00  0.00  0.85  0.00
  GQ102                   1.00   0.04  0.00  0.00  0.63  0.33  0.00  0.00  0.85  0.00
  GQ103                   1.00   0.04  0.00  0.00  0.96  0.00  0.00  0.00  0.71  0.00
  GQ104                   1.00   0.04  0.00  0.00  0.51  0.45  0.00  0.00  0.74  0.00
  GQ105                   1.00   0.04  0.00  0.00  0.96  0.00  0.00  0.00  0.16  0.00
  GQ106                   1.00   0.04  0.00  0.00  0.75  0.21  0.00  0.00  0.85  0.00
  GQ107                   1.00   0.04  0.00  0.00  0.53  0.43  0.00  0.00  0.70  0.00
  GQ108                   1.00   0.04  0.00  0.00  0.96  0.00  0.00  0.00  0.16  0.00
  GQ109                   1.00   0.04  0.00  0.00  0.93  0.03  0.00  0.00  0.72  0.00
  GQ110                   1.00   0.04  0.00  0.00  0.95  0.01  0.00  0.00  0.85  0.00
  GQ111                   1.00   0.04  0.00  0.00  0.75  0.22  0.00  0.00  0.74  0.00
  GQ112                   1.00   0.04  0.00  0.00  0.01  0.95  0.00  0.00  0.82  0.00
  GQ113                   1.00   0.04  0.00  0.00  0.00  0.96  0.00  0.00  0.80  0.00
  GQ114                   1.00   0.04  0.00  0.00  0.96  0.00  0.00  0.00  0.17  0.00
  GQ115                   1.00   0.04  0.00  0.00  0.94  0.02  0.00  0.00  0.85  0.00
  GQ116                   1.00   0.04  0.00  0.00  0.96  0.00  0.00  0.00  0.85  0.00
  GQ117                   1.00   0.04  0.00  0.00  0.00  0.96  0.00  0.00  0.01  0.00
  GQ118                   1.00   0.04  0.00  0.00  0.42  0.54  0.00  0.00  0.85  0.00
  GQ119                   1.00   0.04  0.00  0.00  0.62  0.34  0.00  0.00  0.63  0.00
  GQ120                   1.00   0.04  0.06  0.00  0.91  0.00  0.00  0.00  0.00  0.00
  GQ121                   1.00   0.04  0.00  0.00  0.95  0.01  0.00  0.00  0.15  0.00
  GQ122                   1.00   0.04  0.01  0.00  0.73  0.23  0.00  0.00  0.85  0.00
  GQ123                   1.00   0.04  0.00  0.00  0.68  0.28  0.00  0.00  0.85  0.00
  GQ124                   1.00   0.04  0.01  0.00  0.94  0.02  0.00  0.00  0.85  0.00
  GQ125                   1.00   0.04  0.00  0.00  0.95  0.01  0.00  0.00  0.73  0.00
  GQ126                   1.00   0.04  0.00  0.00  0.71  0.26  0.00  0.00  0.76  0.00
  GQ127                   1.00   0.04  0.00  0.00  0.96  0.00  0.00  0.00  0.64  0.00
  GQ128                   1.00   0.04  0.00  0.00  0.37  0.59  0.00  0.00  0.65  0.00
  GQ129                   1.00   0.04  0.00  0.00  0.96  0.00  0.00  0.00  0.27  0.00
  GQ130                   1.00   0.04  0.00  0.00  0.82  0.14  0.00  0.00  0.27  0.00
  GQ131                   1.00   0.04  0.00  0.00  0.91  0.05  0.00  0.00  0.68  0.00
  
  
  *************************
  Conduit Surcharge Summary
  *************************
  
  ----------------------------------------------------------------------------
                                                           Hours        Hours 
                         --------- Hours Full --------   Above Full   Capacity
  Conduit                Both Ends  Upstream  Dnstream   Normal Flow   Limited
  ----------------------------------------------------------------------------
  GQ1                         0.01      0.68      0.01      0.01         0.01
  GQ4                         3.87      3.87      4.77      0.01         0.01
  GQ5                         0.99      0.99      4.76      0.01         0.01
  GQ6                         0.01      0.01      0.99      0.01         0.01
  GQ7                         1.85      1.85      3.06      0.01         0.01
  GQ8                         0.52      0.52      1.85      0.01         0.01
  GQ9                         0.52      0.52      4.82      0.01         0.01
  GQ10                        3.96      3.96      4.83      0.06         0.01
  GQ12                        0.01      0.01      4.75      0.01         0.01
  GQ13                        0.01      0.01      3.36      0.01         0.01
  GQ15                        0.01      0.23      0.01      0.01         0.01
  GQ16                        0.01      0.67      0.01      0.01         0.01
  GQ18                        0.01      0.01      4.75      4.75         0.01
  GQ20                        0.01      0.01      0.85      0.01         0.01
  GQ21                        0.01      0.01      0.85      0.01         0.01
  GQ22                        0.01      0.01      0.59      0.01         0.01
  GQ23                        0.59      0.59      0.74      0.01         0.01
  GQ24                        0.80      0.80      4.79      0.01         0.01
  GQ25                        0.01      0.77      0.01      0.78         0.01
  GQ26                        0.01      0.01      0.88      0.01         0.01
  GQ27                        0.88      0.88      4.75      0.01         0.01
  GQ28                        0.01      0.01      4.75      0.01         0.01
  GQ29                        4.68      4.68      4.75      0.01         0.01
  GQ30                        4.75      4.75      4.77      0.01         0.01
  GQ31                        0.77      0.77      4.85      0.01         0.01
  GQ32                        0.61      1.14      0.61      0.57         0.13
  GQ33                        1.14      1.14      4.85      0.01         0.01
  GQ34                        0.01      0.01      1.14      0.01         0.01
  GQ35                        1.05      1.09      1.14      0.11         0.01
  GQ36                        1.06      1.09      1.07      0.77         0.66
  GQ37                        0.61      0.61      4.82      0.01         0.01
  GQ38                        0.01      0.01      4.82      0.01         0.01
  GQ39                        0.90      0.90      4.75      0.01         0.01
  GQ40                        0.61      0.61      0.90      0.01         0.01
  GQ41                        0.67      0.67      4.76      0.01         0.01
  GQ42                        2.73      2.73      4.77      0.01         0.01
  GQ43                        1.19      1.19      2.73      0.04         0.01
  GQ44                        3.81      3.81      4.75      0.01         0.01
  GQ45                        0.01      0.01      2.87      0.01         0.01
  GQ46                        2.87      2.87      3.81      0.01         0.01
  GQ47                        0.01      0.01      4.81      0.01         0.01
  GQ48                        0.01      0.01      4.81      0.01         0.01
  GQ49                        0.01      0.01      4.81      0.01         0.01
  GQ50                        0.01      0.01      0.88      0.01         0.01
  GQ51                        0.68      0.88      0.68      0.96         0.68
  GQ52                        0.56      0.56      4.68      0.48         0.48
  GQ53                        1.54      1.54      4.76      0.01         0.01
  GQ54                        0.01      0.01      4.82      0.01         0.01
  GQ55                        0.01      0.01      4.82      0.01         0.01
  GQ56                        1.27      1.32      1.85      0.27         0.09
  GQ57                        0.01      0.01      1.32      0.01         0.01
  GQ58                        0.01      0.01      4.75      0.01         0.01
  GQ59                        2.73      2.73      4.75      0.01         0.01
  GQ60                        0.94      0.94      2.74      0.01         0.01
  GQ61                        0.01      0.01      4.65      0.01         0.01
  GQ62                        0.01      0.01      4.67      0.01         0.01
  GQ63                        0.01      0.01      4.66      0.01         0.01
  GQ65                        0.01      0.01      0.56      0.01         0.01
  GQ66                        0.01      0.01      4.68      0.01         0.01
  GQ67                        4.66      4.66      4.67      0.01         0.01
  GQ68                        0.01      0.01      4.72      0.01         0.01
  GQ69                        0.01      0.01      4.79      0.01         0.01
  GQ75                        0.01      0.01      4.73      0.01         0.01
  GQ76                        0.01      0.01      0.37      0.37         0.01
  GQ78                        1.21      1.21      4.82      0.01         0.01
  GQ79                        0.01      0.01      4.82      0.01         0.01
  GQ80                        1.21      1.21      4.81      0.01         0.01
  GQ81                        4.75      4.81      4.75      4.82         1.40
  GQ82                        0.01      0.01      4.75      0.01         0.01
  GQ83                        0.01      0.01      0.77      0.01         0.01
  GQ84                        0.84      0.84      1.56      0.04         0.01
  GQ85                        0.84      0.84      4.87      0.01         0.01
  GQ86                        0.01      0.01      4.82      0.01         0.01
  GQ87                        0.01      0.01      4.82      0.01         0.01
  GQ88                        0.01      0.01      4.81      0.01         0.01
  GQ89                        0.01      0.01      4.74      0.01         0.01
  GQ90                        0.01      0.01      4.71      0.01         0.01
  GQ91                        0.01      0.01      4.76      0.01         0.01
  GQ92                        0.79      0.84      0.89      0.78         0.68
  GQ93                        0.89      0.89      1.15      0.01         0.01
  GQ94                        1.13      1.15      1.19      1.12         1.05
  GQ95                        0.01      0.01      4.85      0.01         0.01
  GQ96                        0.82      0.85      0.84      0.86         0.75
  GQ97                        0.01      0.45      0.01      0.62         0.01
  GQ98                        0.01      0.01      4.80      0.01         0.01
  GQ99                        0.01      0.01      4.67      0.01         0.01
  GQ100                       0.01      0.69      0.01      0.66         0.01
  GQ101                       0.01      0.01      4.77      0.01         0.01
  GQ102                       0.01      0.01      4.77      0.01         0.01
  GQ103                       0.75      0.75      4.78      0.01         0.01
  GQ104                       0.61      0.61      4.78      0.04         0.01
  GQ105                       4.75      4.75      4.77      4.32         0.01
  GQ106                       0.01      0.01      4.76      0.01         0.01
  GQ107                       0.90      0.90      4.76      0.01         0.01
  GQ108                       4.73      4.73      4.75      0.01         0.01
  GQ109                       0.01      0.01      0.90      0.01         0.01
  GQ110                       0.01      0.01      4.73      0.01         0.01
  GQ111                       0.01      0.01      4.77      0.01         0.01
  GQ114                       0.01      0.01      4.82      0.01         0.01
  GQ116                       0.01      0.01      4.82      0.01         0.01
  GQ117                       0.01      0.51      0.01      0.01         0.01
  GQ118                       0.01      0.01      0.51      0.01         0.01
  GQ119                       1.29      1.29      4.78      0.01         0.01
  GQ120                       0.01      0.01      4.77      0.01         0.01
  GQ121                       4.74      4.74      4.78      0.01         0.01
  GQ122                       0.01      0.01      4.74      0.01         0.01
  GQ123                       0.01      0.01      4.75      0.01         0.01
  GQ124                       0.01      0.01      0.48      0.01         0.01
  GQ125                       0.45      0.45      4.76      0.01         0.01
  GQ126                       0.01      0.01      4.77      0.01         0.01
  GQ127                       1.19      1.19      1.29      0.09         0.10
  GQ128                       0.01      0.01      1.05      0.01         0.01
  GQ129                       3.06      3.06      4.79      0.01         0.01
  GQ130                       3.27      3.27      4.88      0.01         0.01
  GQ131                       0.88      0.88      4.86      0.01         0.01
  

  Analysis begun on:  Wed Mar 29 19:37:59 2023
  Analysis ended on:  Wed Mar 29 19:38:11 2023
  Total elapsed time: 00:00:12