
  OWA STORM WATER MANAGEMENT MODEL - VERSION v5.1.14 (OWA 2022-07-31)
  --------------------------------------------------------------

  INP file created by DSDAConvertToSwmmTools 
  version 0.0.1 EcoVista 
  Title/Notes: 
  
  
  *********************************************************
  NOTE: The summary statistics displayed in this report are
  based on results found at every computational time step,  
  not just on results from each reporting time step.
  *********************************************************
  
  ****************
  Analysis Options
  ****************
  Flow Units ............... CMS
  Process Models:
    Rainfall/Runoff ........ YES
    RDII ................... NO
    Snowmelt ............... NO
    Groundwater ............ NO
    Flow Routing ........... YES
    Ponding Allowed ........ NO
    Water Quality .......... NO
  Infiltration Method ...... GREEN_AMPT
  Flow Routing Method ...... DYNWAVE
  Surcharge Method ......... EXTRAN
  Starting Date ............ 07/15/2020 00:00:00
  Ending Date .............. 07/16/2020 01:00:00
  Antecedent Dry Days ...... 0.0
  Report Time Step ......... 00:30:00
  Wet Time Step ............ 00:05:00
  Dry Time Step ............ 01:00:00
  Routing Time Step ........ 30.00 sec
  Variable Time Step ....... YES
  Maximum Trials ........... 8
  Number of Threads ........ 1
  Head Tolerance ........... 0.001500 m
  
  
  **************************        Volume         Depth
  Runoff Quantity Continuity     hectare-m            mm
  **************************     ---------       -------
  Total Precipitation ......       183.040        45.800
  Evaporation Loss .........         9.047         2.264
  Infiltration Loss ........        48.917        12.240
  Surface Runoff ...........       117.181        29.321
  Final Storage ............         8.032         2.010
  Continuity Error (%) .....        -0.074
  
  
  **************************        Volume        Volume
  Flow Routing Continuity        hectare-m      10^6 ltr
  **************************     ---------     ---------
  Dry Weather Inflow .......         0.000         0.000
  Wet Weather Inflow .......       117.060      1170.612
  Groundwater Inflow .......         0.000         0.000
  RDII Inflow ..............         0.000         0.000
  External Inflow ..........         0.000         0.000
  External Outflow .........        11.803       118.035
  Flooding Loss ............       103.652      1036.530
  Evaporation Loss .........         0.000         0.000
  Exfiltration Loss ........         0.000         0.000
  Initial Stored Volume ....         0.000         0.000
  Final Stored Volume ......         1.411        14.114
  Continuity Error (%) .....         0.165
  
  
  *************************
  Highest Continuity Errors
  *************************
  Node jd51 (4.65%)
  Node jd64 (3.79%)
  Node jd59 (3.69%)
  Node jd55 (3.44%)
  Node jd31 (3.44%)
  
  
  ***************************
  Time-Step Critical Elements
  ***************************
  Link GQ73 (98.46%)
  
  
  ********************************
  Highest Flow Instability Indexes
  ********************************
  Link GQ67 (22)
  Link GQ29 (12)
  Link GQ121 (8)
  Link GQ114 (5)
  Link GQ46 (3)
  
  
  *************************
  Routing Time Step Summary
  *************************
  Minimum Time Step           :     5.05 sec
  Average Time Step           :     8.95 sec
  Maximum Time Step           :    30.00 sec
  Percent in Steady State     :     0.00
  Average Iterations per Step :     3.56
  Percent Not Converging      :    11.75
  
  
  ***************************
  Subcatchment Runoff Summary
  ***************************
  
  ------------------------------------------------------------------------------------------------------------------------------
                            Total      Total      Total      Total     Imperv       Perv      Total       Total     Peak  Runoff
                           Precip      Runon       Evap      Infil     Runoff     Runoff     Runoff      Runoff   Runoff   Coeff
  Subcatchment                 mm         mm         mm         mm         mm         mm         mm    10^6 ltr      CMS
  ------------------------------------------------------------------------------------------------------------------------------
  1                         45.80       0.00       1.36      25.66      17.74       0.00      17.74        7.02     0.29   0.387
  2                         45.80       0.00       2.43       9.75      31.32       0.00      31.32       28.32     1.16   0.684
  3                         45.80       0.00       2.53       8.36      32.76       0.00      32.76       13.11     0.55   0.715
  4                         45.80       0.00       2.61       7.18      33.93       0.00      33.93        2.85     0.12   0.741
  5                         45.80       0.00       2.30      11.67      30.00       0.00      30.00        3.71     0.16   0.655
  6                         45.80       0.00       2.20      13.13      28.77       0.00      28.77        2.67     0.11   0.628
  7                         45.80       0.00       2.30      11.72      29.71       0.00      29.71       12.95     0.53   0.649
  8                         45.80       0.00       2.92       2.56      37.78       0.00      37.78        5.26     0.22   0.825
  9                         45.80       0.00       3.00       1.28      38.96       0.00      38.96        4.56     0.19   0.851
  10                        45.80       0.00       2.59       7.45      33.58       0.00      33.58        7.56     0.32   0.733
  11                        45.80       0.00       2.79       4.38      36.16       0.00      36.16       17.93     0.75   0.790
  12                        45.80       0.00       2.20      13.17      28.57       0.00      28.57       13.94     0.58   0.624
  13                        45.80       0.00       2.76       4.94      35.69       0.00      35.69       16.14     0.67   0.779
  14                        45.80       0.00       2.75       4.99      35.76       0.00      35.76        6.75     0.28   0.781
  15                        45.80       0.00       2.55       8.05      33.02       0.00      33.02       11.16     0.47   0.721
  16                        45.80       0.00       2.64       6.65      34.21       0.00      34.21       10.10     0.42   0.747
  17                        45.80       0.00       2.47       9.14      32.07       0.00      32.07       13.42     0.56   0.700
  18                        45.80       0.00       2.85       3.60      36.83       0.00      36.83       15.21     0.63   0.804
  19                        45.80       0.00       2.84       3.77      36.66       0.00      36.66        8.24     0.34   0.800
  20                        45.80       0.00       2.82       4.02      36.29       0.00      36.29       19.48     0.80   0.792
  21                        45.80       0.00       3.00       1.35      38.78       0.00      38.78       12.17     0.51   0.847
  22                        45.80       0.00       2.94       2.16      38.04       0.00      38.04        4.68     0.19   0.831
  23                        45.80       0.00       2.71       5.60      35.03       0.00      35.03       20.06     0.83   0.765
  24                        45.80       0.00       2.62       6.99      33.81       0.00      33.81        5.99     0.25   0.738
  25                        45.80       0.00       2.80       4.30      36.32       0.00      36.32        7.35     0.31   0.793
  26                        45.80       0.00       2.38      10.45      30.75       0.00      30.75       10.79     0.44   0.671
  27                        45.80       0.00       2.86       3.43      36.81       0.00      36.81       15.56     0.64   0.804
  28                        45.80       0.00       2.92       2.53      37.67       0.00      37.67       17.81     0.74   0.823
  29                        45.80       0.00       2.61       7.11      33.92       0.00      33.92        7.92     0.33   0.741
  30                        45.80       0.00       2.98       1.55      38.85       0.00      38.85        2.79     0.12   0.848
  31                        45.80       0.00       3.02       0.96      39.16       0.00      39.16        8.63     0.36   0.855
  32                        45.80       0.00       2.95       2.04      38.18       0.00      38.18       16.50     0.69   0.834
  33                        45.80       0.00       2.99       1.49      38.62       0.00      38.62       13.61     0.57   0.843
  34                        45.80       0.00       2.78       4.64      35.95       0.00      35.95       10.54     0.44   0.785
  35                        45.80       0.00       2.86       3.45      36.96       0.00      36.96       15.33     0.64   0.807
  36                        45.80       0.00       2.35      10.91      30.57       0.00      30.57       12.03     0.50   0.667
  37                        45.80       0.00       2.92       2.47      37.81       0.00      37.81        8.39     0.35   0.826
  38                        45.80       0.00       2.74       5.19      35.50       0.00      35.50       13.54     0.57   0.775
  39                        45.80       0.00       2.47       9.11      32.13       0.00      32.13       13.57     0.57   0.701
  40                        45.80       0.00       2.76       4.95      35.69       0.00      35.69        8.16     0.34   0.779
  41                        45.80       0.00       2.82       4.03      36.57       0.00      36.57        7.21     0.30   0.799
  42                        45.80       0.00       2.81       4.07      36.29       0.00      36.29        8.96     0.37   0.792
  43                        45.80       0.00       2.37      10.71      30.60       0.00      30.60       24.19     1.00   0.668
  44                        45.80       0.00       2.53       8.35      32.64       0.00      32.64       15.77     0.65   0.713
  45                        45.80       0.00       2.37      10.62      30.73       0.00      30.73       22.23     0.92   0.671
  46                        45.80       0.00       2.29      11.84      29.81       0.00      29.81       14.90     0.62   0.651
  47                        45.80       0.00       2.41      10.13      31.15       0.00      31.15       36.32     1.50   0.680
  48                        45.80       0.00       2.88       3.17      37.01       0.00      37.01       21.48     0.88   0.808
  49                        45.80       0.00       2.63       6.78      33.90       0.00      33.90       22.95     0.94   0.740
  50                        45.80       0.00       2.92       2.58      37.39       0.00      37.39       14.69     0.59   0.816
  51                        45.80       0.00       2.79       4.45      35.82       0.00      35.82        6.70     0.27   0.782
  52                        45.80       0.00       1.36      25.69      17.76       0.00      17.76       18.22     0.76   0.388
  53                        45.80       0.00       1.96      16.68      25.61       0.00      25.61       27.28     1.14   0.559
  54                        45.80       0.00       2.42       9.86      31.45       0.00      31.45        7.67     0.32   0.687
  55                        45.80       0.00       1.39      25.22      18.16       0.00      18.16       14.33     0.60   0.396
  56                        45.80       0.00       0.52      38.04       6.94       0.00       6.94        5.66     0.23   0.152
  57                        45.80       0.00       2.75       5.10      35.36       0.00      35.36       29.38     1.20   0.772
  58                        45.80       0.00       2.54       8.09      32.98       0.00      32.98        5.43     0.23   0.720
  59                        45.80       0.00       2.48       8.99      32.34       0.00      32.34        4.12     0.17   0.706
  60                        45.80       0.00       0.93      32.01      12.24       0.00      12.24        3.51     0.15   0.267
  61                        45.80       0.00       1.45      24.35      18.83       0.00      18.83        7.10     0.30   0.411
  62                        45.80       0.00       2.01      15.94      26.09       0.00      26.09       30.58     1.26   0.570
  63                        45.80       0.00       2.75       5.05      35.30       0.00      35.30       68.28     2.76   0.771
  64                        45.80       0.00       2.05      15.40      26.69       0.00      26.69        5.73     0.24   0.583
  65                        45.80       0.00       2.79       4.47      35.83       0.00      35.83       24.10     0.98   0.782
  66                        45.80       0.00       2.20      13.25      28.38       0.00      28.38        7.23     0.30   0.620
  67                        45.80       0.00       2.05      15.38      26.76       0.00      26.76        8.65     0.36   0.584
  68                        45.80       0.00       2.46       9.30      31.98       0.00      31.98        3.55     0.15   0.698
  69                        45.80       0.00       1.44      24.38      18.99       0.00      18.99        6.08     0.25   0.415
  70                        45.80       0.00       2.03      15.65      26.38       0.00      26.38       21.71     0.90   0.576
  71                        45.80       0.00       2.51       8.56      32.61       0.00      32.61        4.00     0.17   0.712
  72                        45.80       0.00       2.65       6.54      34.37       0.00      34.37        4.28     0.18   0.751
  73                        45.80       0.00       2.40      10.23      31.24       0.00      31.24        5.19     0.22   0.682
  74                        45.80       0.00       2.29      11.89      29.77       0.00      29.77        6.41     0.27   0.650
  75                        45.80       0.00       2.54       8.11      33.02       0.00      33.02        4.76     0.20   0.721
  76                        45.80       0.00       2.67       6.15      34.76       0.00      34.76        3.37     0.14   0.759
  77                        45.80       0.00       2.85       3.52      36.96       0.00      36.96        4.00     0.17   0.807
  78                        45.80       0.00       2.75       5.01      35.64       0.00      35.64        3.92     0.16   0.778
  79                        45.80       0.00       1.21      27.91      15.83       0.00      15.83       16.78     0.70   0.346
  80                        45.80       0.00       2.27      12.08      29.42       0.00      29.42       18.41     0.76   0.642
  81                        45.80       0.00       2.31      11.55      29.86       0.00      29.86       13.02     0.54   0.652
  82                        45.80       0.00       2.21      13.01      28.61       0.00      28.61       26.23     1.08   0.625
  83                        45.80       0.00       2.77       4.80      35.90       0.00      35.90        4.39     0.18   0.784
  84                        45.80       0.00       2.61       7.11      33.82       0.00      33.82        4.04     0.17   0.738
  85                        45.80       0.00       3.07       0.35      39.81       0.00      39.81        3.70     0.16   0.869
  86                        45.80       0.00       2.83       3.87      36.67       0.00      36.67        5.40     0.23   0.801
  87                        45.80       0.00       3.02       0.98      39.09       0.00      39.09        5.14     0.21   0.854
  88                        45.80       0.00       2.70       5.71      35.12       0.00      35.12        3.36     0.14   0.767
  89                        45.80       0.00       2.84       3.68      36.86       0.00      36.86        7.10     0.30   0.805
  90                        45.80       0.00       3.09       0.01      40.19       0.00      40.19        0.46     0.02   0.877
  91                        45.80       0.00       2.57       7.67      33.14       0.00      33.14        7.23     0.30   0.724
  92                        45.80       0.00       2.85       3.56      36.93       0.00      36.93        4.62     0.19   0.806
  93                        45.80       0.00       2.32      11.38      30.11       0.00      30.11       15.41     0.64   0.657
  94                        45.80       0.00       2.09      14.84      27.33       0.00      27.33        1.91     0.08   0.597
  95                        45.80       0.00       3.09       0.05      40.05       0.00      40.05        0.87     0.04   0.874
  96                        45.80       0.00       2.49       8.87      32.38       0.00      32.38        3.96     0.17   0.707
  97                        45.80       0.00       3.02       0.97      39.20       0.00      39.20        3.89     0.16   0.856
  98                        45.80       0.00       2.51       8.65      32.58       0.00      32.58        4.02     0.17   0.711
  99                        45.80       0.00       1.24      27.40      16.30       0.00      16.30        6.05     0.25   0.356
  100                       45.80       0.00       1.38      25.35      18.12       0.00      18.12        4.65     0.19   0.396
  101                       45.80       0.00       1.41      24.84      18.51       0.00      18.51        9.07     0.38   0.404
  102                       45.80       0.00       2.30      11.65      29.91       0.00      29.91        7.29     0.30   0.653
  103                       45.80       0.00       0.77      34.38      10.18       0.00      10.18        3.70     0.15   0.222
  104                       45.80       0.00       0.52      38.08       6.88       0.00       6.88        6.67     0.28   0.150
  105                       45.80       0.00       2.54       8.13      33.04       0.00      33.04        4.32     0.18   0.721
  106                       45.80       0.00       1.38      25.40      18.04       0.00      18.04        4.40     0.18   0.394
  
  
  ******************
  Node Depth Summary
  ******************
  
  ---------------------------------------------------------------------------------
                                 Average  Maximum  Maximum  Time of Max    Reported
                                   Depth    Depth      HGL   Occurrence   Max Depth
  Node                 Type       Meters   Meters   Meters  days hr:min      Meters
  ---------------------------------------------------------------------------------
  jd1                  JUNCTION     0.08     0.15   273.15     0  05:00        0.15
  jd2                  JUNCTION     0.21     0.40   267.40     0  05:00        0.40
  jd3                  JUNCTION     2.87     3.00   266.00     0  02:38        3.00
  jd4                  JUNCTION     0.61     3.00   270.00     0  04:26        3.00
  jd5                  JUNCTION     0.06     0.10   274.10     0  05:00        0.10
  jd6                  JUNCTION     0.07     0.13   275.13     0  05:00        0.13
  jd7                  JUNCTION     0.25     0.42   264.52     0  05:00        0.42
  jd8                  JUNCTION     1.30     3.00   267.00     0  04:13        3.00
  jd9                  JUNCTION     0.78     3.00   268.00     0  04:13        3.00
  jd10                 JUNCTION     2.88     3.00   273.00     0  02:29        3.00
  jd11                 JUNCTION     0.06     0.12   282.12     0  05:00        0.12
  jd12                 JUNCTION     2.90     3.00   272.00     0  02:09        3.00
  jd13                 JUNCTION     0.08     0.14   289.14     0  05:00        0.14
  jd14                 JUNCTION     0.16     0.32   280.32     0  05:00        0.32
  jd15                 JUNCTION     0.17     0.32   278.32     0  05:00        0.32
  jd16                 JUNCTION     0.19     0.36   274.36     0  05:00        0.36
  jd17                 JUNCTION     1.83     3.00   278.80     0  03:58        3.00
  jd18                 JUNCTION     0.16     0.35   279.35     0  05:00        0.35
  jd19                 JUNCTION     0.45     3.00   270.00     0  04:22        2.68
  jd20                 JUNCTION     0.16     0.24   273.24     0  05:00        0.24
  jd21                 JUNCTION     2.86     3.00   273.00     0  03:45        3.00
  jd22                 JUNCTION     1.21     2.76   274.76     0  05:00        2.76
  jd23                 JUNCTION     0.14     0.28   278.28     0  05:00        0.28
  jd24                 JUNCTION     0.09     0.17   285.17     0  05:00        0.17
  jd25                 JUNCTION     0.15     0.28   279.28     0  05:00        0.28
  jd26                 JUNCTION     0.16     0.32   285.32     0  05:00        0.32
  jd27                 JUNCTION     0.13     0.26   291.26     0  05:00        0.26
  jd28                 JUNCTION     2.91     3.00   290.00     0  01:57        3.00
  jd29                 JUNCTION     0.06     0.12   299.12     0  05:00        0.12
  jd30                 JUNCTION     0.08     0.15   290.15     0  05:00        0.15
  jd31                 JUNCTION     0.95     2.51   274.51     0  03:45        1.11
  jd32                 JUNCTION     2.91     3.00   275.00     0  02:03        3.00
  jd33                 JUNCTION     0.12     0.23   289.23     0  05:00        0.23
  jd34                 JUNCTION     0.13     0.26   294.26     0  05:00        0.26
  jd35                 JUNCTION     2.93     3.00   292.00     0  01:46        3.00
  jd36                 JUNCTION     0.20     0.40   299.40     0  05:00        0.40
  jd37                 JUNCTION     0.19     0.38   303.38     0  05:00        0.38
  jd38                 JUNCTION     0.23     0.45   297.45     0  05:00        0.45
  jd39                 JUNCTION     2.87     3.00   297.00     0  02:36        3.00
  jd40                 JUNCTION     0.37     3.00   302.00     0  04:39        3.00
  jd41                 JUNCTION     2.79     3.00   296.00     0  04:06        3.00
  jd42                 JUNCTION     0.13     0.23   305.23     0  05:00        0.23
  jd43                 JUNCTION     0.33     3.00   300.00     0  04:55        3.00
  jd44                 JUNCTION     0.37     3.00   286.00     0  04:45        2.48
  jd45                 JUNCTION     2.90     3.00   282.00     0  02:13        3.00
  jd46                 JUNCTION     0.17     0.33   275.33     0  05:00        0.33
  jd47                 JUNCTION     0.10     0.19   315.19     0  05:00        0.19
  jd48                 JUNCTION     0.07     0.13   325.13     0  05:00        0.13
  jd49                 JUNCTION     0.16     0.31   289.31     0  05:00        0.31
  jd50                 JUNCTION     2.92     3.00   278.00     0  01:54        3.00
  jd51                 JUNCTION     2.76     3.00   313.00     0  04:12        3.00
  jd52                 JUNCTION     0.24     0.50   323.50     0  05:00        0.50
  jd53                 JUNCTION     0.25     0.53   322.53     0  05:00        0.53
  jd54                 JUNCTION     0.18     0.34   326.34     0  05:00        0.34
  jd55                 JUNCTION     1.22     1.65   323.65     0  05:00        1.65
  jd56                 JUNCTION     0.12     0.22   327.22     0  05:00        0.22
  jd59                 JUNCTION     2.74     3.00   320.80     0  04:17        3.00
  jd60                 JUNCTION     2.90     3.00   319.00     0  02:07        3.00
  jd61                 JUNCTION     0.09     0.17   329.17     0  05:00        0.17
  jd62                 JUNCTION     0.04     0.08   335.08     0  05:00        0.08
  jd63                 JUNCTION     0.05     0.08   324.08     0  05:00        0.08
  jd64                 JUNCTION     2.55     3.00   321.00     0  04:17        2.82
  jd65                 JUNCTION     1.12     3.00   307.00     0  04:11        3.00
  jd66                 JUNCTION     2.85     3.00   304.00     0  02:57        3.00
  jd69                 JUNCTION     0.15     0.28   333.28     0  05:00        0.28
  jd79                 JUNCTION     2.83     3.00   274.00     0  02:01        3.00
  jd80                 JUNCTION     1.93     3.00   279.00     0  03:58        3.00
  jd81                 JUNCTION     0.09     0.18   288.18     0  05:00        0.18
  jd83                 JUNCTION     2.93     3.00   323.00     0  01:43        3.00
  jd84                 JUNCTION     0.14     0.29   323.29     0  05:00        0.29
  jd85                 JUNCTION     2.86     3.00   324.00     0  02:53        3.00
  jd87                 JUNCTION     2.89     3.00   322.00     0  02:16        3.00
  jd89                 JUNCTION     0.10     0.19   324.19     0  05:00        0.19
  jd90                 JUNCTION     0.09     0.17   328.17     0  05:00        0.17
  jd92                 JUNCTION     0.09     0.17   326.17     0  05:00        0.17
  jd93                 JUNCTION     0.26     0.53   324.53     0  05:00        0.53
  jd94                 JUNCTION     0.16     0.30   326.50     0  05:00        0.30
  jd95                 JUNCTION     0.21     0.40   327.40     0  05:00        0.40
  jd96                 JUNCTION     2.90     3.00   308.00     0  02:15        3.00
  jd97                 JUNCTION     0.21     0.40   327.60     0  05:00        0.40
  jd98                 JUNCTION     0.12     0.22   329.22     0  05:00        0.22
  jd99                 JUNCTION     2.85     3.00   327.00     0  02:50        3.00
  jd101                JUNCTION     0.07     0.13   321.13     0  05:00        0.13
  jd102                JUNCTION     0.14     0.28   324.28     0  05:00        0.28
  jd103                JUNCTION     0.07     0.14   318.14     0  05:00        0.14
  jd106                JUNCTION     2.79     3.00   287.00     0  03:50        3.00
  jd107                JUNCTION     0.14     0.25   332.25     0  05:00        0.25
  jd108                JUNCTION     1.10     1.26   327.26     0  04:41        1.25
  jd109                JUNCTION     0.10     0.20   343.20     0  05:00        0.20
  jd110                JUNCTION     2.85     3.00   327.00     0  03:10        3.00
  jd111                JUNCTION     0.05     0.09   344.09     0  05:00        0.09
  jd112                JUNCTION     0.06     0.11   334.11     0  05:00        0.11
  jd113                JUNCTION     0.07     0.12   348.12     0  05:00        0.12
  jd114                JUNCTION     2.89     3.00   317.00     0  02:11        3.00
  jd117                JUNCTION     1.01     1.31   317.31     0  05:00        1.31
  jd118                JUNCTION     0.06     0.11   330.11     0  05:00        0.11
  jd120                JUNCTION     0.10     0.19   327.19     0  05:00        0.19
  jd121                JUNCTION     0.10     0.19   320.19     0  05:00        0.19
  jd122                JUNCTION     2.87     3.00   276.00     0  02:41        3.00
  jd123                JUNCTION     2.86     3.00   276.20     0  02:41        3.00
  jd124                JUNCTION     2.94     3.00   271.00     0  01:34        3.00
  jd125                JUNCTION     0.49     3.00   278.00     0  04:24        3.00
  jd126                JUNCTION     2.93     3.00   275.00     0  01:44        3.00
  jd135                JUNCTION     0.09     0.16   289.16     0  05:00        0.16
  jd136                JUNCTION     0.16     0.31   341.31     0  05:00        0.31
  psk1                 OUTFALL      0.06     0.11   279.11     0  05:00        0.11
  psk2                 OUTFALL      0.08     0.15   270.15     0  05:00        0.15
  psk3                 OUTFALL      0.19     0.36   271.36     0  05:00        0.36
  psk4                 OUTFALL      0.00     0.00   280.00     0  00:00        0.00
  psk5                 OUTFALL      0.08     0.15   263.15     0  05:00        0.15
  psk6                 OUTFALL      0.06     0.10   259.10     0  05:00        0.10
  psk7                 OUTFALL      0.25     0.42   262.42     0  05:00        0.42
  psk8                 OUTFALL      0.00     0.00   317.00     0  00:00        0.00
  
  
  *******************
  Node Inflow Summary
  *******************
  
  -------------------------------------------------------------------------------------------------
                                  Maximum  Maximum                  Lateral       Total        Flow
                                  Lateral    Total  Time of Max      Inflow      Inflow     Balance
                                   Inflow   Inflow   Occurrence      Volume      Volume       Error
  Node                 Type           CMS      CMS  days hr:min    10^6 ltr    10^6 ltr     Percent
  -------------------------------------------------------------------------------------------------
  jd1                  JUNCTION     0.291    0.471     0  05:00        7.01        11.6       0.165
  jd2                  JUNCTION     0.442    0.607     0  05:00        10.8        14.8       0.272
  jd3                  JUNCTION     0.535    1.648     0  05:00        12.9        44.7       0.905
  jd4                  JUNCTION     0.640    0.717     0  05:00        15.5        17.4       0.301
  jd5                  JUNCTION     0.191    0.331     0  05:00        4.55        8.07       0.066
  jd6                  JUNCTION     0.220    0.220     0  05:00        5.26        5.26       0.107
  jd7                  JUNCTION     0.112    1.565     0  05:00        2.67        49.2       0.133
  jd8                  JUNCTION     0.155    1.101     0  05:00        3.71        36.8       0.614
  jd9                  JUNCTION     0.119    1.097     0  05:00        2.84        33.4       0.188
  jd10                 JUNCTION     0.317    0.402     0  05:00        7.56        9.63       1.061
  jd11                 JUNCTION     0.466    0.466     0  05:00        11.2        11.2       0.137
  jd12                 JUNCTION     0.350    0.760     0  05:00        8.38        18.1       0.765
  jd13                 JUNCTION     0.634    0.634     0  05:00        15.2        15.2       0.108
  jd14                 JUNCTION     0.738    0.832     0  05:00        17.8          20       0.190
  jd15                 JUNCTION     0.308    0.666     0  05:00        7.35          16       0.513
  jd16                 JUNCTION     0.331    1.265     0  05:00        7.91        30.1       0.207
  jd17                 JUNCTION     0.688    1.668     0  05:00        16.5        51.1       1.543
  jd18                 JUNCTION     0.548    0.796     0  05:00        13.1          19       0.288
  jd19                 JUNCTION     0.509    0.978     0  05:00        12.2        30.7       0.175
  jd20                 JUNCTION     0.422    0.646     0  05:00        10.1        25.6       0.246
  jd21                 JUNCTION     0.195    1.656     0  05:00        4.67        42.8       0.798
  jd22                 JUNCTION     0.343    0.773     0  05:00        8.23        18.7       0.443
  jd23                 JUNCTION     0.341    0.946     0  05:00        8.15        22.5       0.167
  jd24                 JUNCTION     0.561    0.561     0  05:00        13.4        13.4       0.132
  jd25                 JUNCTION     0.440    0.637     0  05:00        10.5        15.2       0.219
  jd26                 JUNCTION     0.640    1.065     0  05:00        15.3        25.5       0.203
  jd27                 JUNCTION     0.653    1.092     0  05:00        15.8        26.3       0.184
  jd28                 JUNCTION     0.881    1.245     0  05:00        21.5        30.2       0.445
  jd29                 JUNCTION     0.361    0.361     0  05:00        8.62        8.62       0.081
  jd30                 JUNCTION     0.370    1.047     0  05:00        8.95        24.5       0.120
  jd31                 JUNCTION     0.248    0.511     0  05:00        5.99        12.9       3.559
  jd32                 JUNCTION     0.508    2.335     0  05:00        12.2        52.9       0.472
  jd33                 JUNCTION     0.502    0.834     0  05:00          12          20       0.115
  jd34                 JUNCTION     0.622    0.622     0  05:00        14.9        14.9       0.096
  jd35                 JUNCTION     0.567    1.943     0  05:00        13.6        47.6       0.279
  jd36                 JUNCTION     0.941    1.541     0  05:00        22.9        37.7       0.226
  jd37                 JUNCTION     0.996    0.996     0  05:00        24.2        24.2       0.134
  jd38                 JUNCTION     0.921    1.515     0  05:00        22.2        36.7       0.301
  jd39                 JUNCTION     0.641    2.823     0  05:00        15.4        69.7       0.740
  jd40                 JUNCTION     1.083    2.679     0  05:00        26.2        63.6       0.293
  jd41                 JUNCTION     0.764    3.180     0  05:00        18.4        77.7       2.826
  jd42                 JUNCTION     0.980    1.078     0  05:00        24.1        26.4       0.229
  jd43                 JUNCTION     1.136    2.004     0  05:00        27.2        46.9       0.341
  jd44                 JUNCTION     1.505    3.693     0  05:00        36.3        90.9       0.279
  jd45                 JUNCTION     0.591    2.664     0  05:00        14.7        58.4       0.556
  jd46                 JUNCTION     0.271    0.271     0  05:00        6.69        6.69       0.723
  jd47                 JUNCTION     0.903    0.903     0  05:00        21.7        21.7       0.152
  jd48                 JUNCTION     0.252    0.252     0  05:00        6.07        6.07       0.123
  jd49                 JUNCTION     1.204    1.204     0  05:00        29.3        29.3       0.182
  jd50                 JUNCTION     1.263    3.232     0  05:00        30.5         109       0.402
  jd51                 JUNCTION     0.268    1.228     0  05:00         6.4        29.5       4.875
  jd52                 JUNCTION     0.538    2.163     0  05:00          13        50.7       0.267
  jd53                 JUNCTION     0.296    1.664     0  05:00        7.22        39.6       0.164
  jd54                 JUNCTION     0.163    0.811     0  05:00        3.89        19.4       0.216
  jd55                 JUNCTION     0.297    0.980     0  05:00        7.09        22.9       3.564
  jd56                 JUNCTION     0.181    0.529     0  05:00        4.32        12.6       0.191
  jd59                 JUNCTION     0.179    0.888     0  05:00        4.28        20.8       3.834
  jd60                 JUNCTION     0.320    0.680     0  05:00        7.66        16.3       0.795
  jd61                 JUNCTION     0.359    0.404     0  05:00        8.64        9.72       0.134
  jd62                 JUNCTION     0.145    0.145     0  05:00         3.5         3.5       0.051
  jd63                 JUNCTION     0.199    0.199     0  05:00        4.75        4.75       0.095
  jd64                 JUNCTION     0.167    0.413     0  05:00           4        9.87       3.934
  jd65                 JUNCTION     2.760    2.760     0  05:00        68.2        68.2       0.127
  jd66                 JUNCTION     0.375    1.091     0  05:00        9.06        26.3       1.231
  jd69                 JUNCTION     0.697    0.716     0  05:00        16.8        17.2       0.181
  jd79                 JUNCTION     0.674    1.250     0  05:00        16.1        28.1       0.626
  jd80                 JUNCTION     0.747    0.960     0  05:00        17.9        24.8       0.589
  jd81                 JUNCTION     0.566    0.566     0  05:00        13.6        13.6       0.047
  jd83                 JUNCTION     0.597    0.768     0  05:00        14.3        19.7       0.435
  jd84                 JUNCTION     0.759    0.759     0  05:00        18.2        18.2       0.132
  jd85                 JUNCTION     0.172    0.283     0  05:00        4.11        6.76       1.288
  jd87                 JUNCTION     0.141    0.339     0  05:00        3.36        8.13       0.919
  jd89                 JUNCTION     0.164    0.164     0  05:00        3.91        3.91       0.194
  jd90                 JUNCTION     0.167    0.167     0  05:00           4           4       0.145
  jd92                 JUNCTION     0.141    0.141     0  05:00        3.36        3.36       0.103
  jd93                 JUNCTION     0.299    0.650     0  05:00        7.22        15.6       0.229
  jd94                 JUNCTION     0.019    0.352     0  05:00       0.461         8.4       0.269
  jd95                 JUNCTION     0.037    0.333     0  05:00       0.874        7.96       0.242
  jd96                 JUNCTION     0.276    0.367     0  05:00        6.66        8.84       1.099
  jd97                 JUNCTION     0.296    0.296     0  05:00        7.09        7.09       0.062
  jd98                 JUNCTION     0.166    0.166     0  05:00        3.95        3.95       0.114
  jd99                 JUNCTION     0.080    0.260     0  05:00        1.91        6.75       0.853
  jd101                JUNCTION     0.217    0.432     0  05:00        5.18        10.3       0.114
  jd102                JUNCTION     0.215    0.215     0  05:00        5.14        5.14       0.164
  jd103                JUNCTION     0.149    0.149     0  05:00        3.55        3.55       0.055
  jd106                JUNCTION     0.117    0.671     0  05:00        2.78        15.9       2.480
  jd107                JUNCTION     0.168    0.551     0  05:00        4.01        13.2       0.211
  jd108                JUNCTION     0.183    0.183     0  05:00         4.4        4.42       1.510
  jd109                JUNCTION     0.305    0.305     0  05:00        7.29        7.29       0.048
  jd110                JUNCTION     0.233    0.347     0  05:00        5.65        8.39       1.847
  jd111                JUNCTION     0.193    0.193     0  05:00        4.64        4.64       0.096
  jd112                JUNCTION     0.226    0.629     0  05:00         5.4        15.1       0.086
  jd113                JUNCTION     0.153    0.153     0  05:00         3.7         3.7       0.018
  jd114                JUNCTION     0.184    2.396     0  05:00        4.38        57.3       0.557
  jd117                JUNCTION     0.169    0.556     0  05:00        4.03        13.5       1.184
  jd118                JUNCTION     0.155    0.155     0  05:00         3.7         3.7       0.029
  jd120                JUNCTION     0.193    0.193     0  05:00        4.61        4.61       0.093
  jd121                JUNCTION     0.238    0.238     0  05:00        5.73        5.73       0.117
  jd122                JUNCTION     0.565    2.262     0  05:00        13.5        71.6       0.793
  jd123                JUNCTION     0.582    2.203     0  05:00        13.9        78.6       0.906
  jd124                JUNCTION     0.832    1.905     0  05:00          20        57.5       0.101
  jd125                JUNCTION     0.800    2.419     0  05:00        19.5        66.3       0.111
  jd126                JUNCTION     1.155    1.626     0  05:00        28.3        39.6       0.256
  jd135                JUNCTION     0.302    0.302     0  05:00        7.21        7.21       0.074
  jd136                JUNCTION     0.251    0.404     0  05:00        6.04        9.74       0.214
  psk1                 OUTFALL      0.000    0.300     0  05:00           0        7.13       0.000
  psk2                 OUTFALL      0.000    0.770     0  05:00           0          18       0.000
  psk3                 OUTFALL      0.000    1.262     0  05:00           0        30.1       0.000
  psk4                 OUTFALL      0.000    0.000     0  00:00           0           0       0.000 ltr
  psk5                 OUTFALL      0.000    0.305     0  05:00           0         7.5       0.000
  psk6                 OUTFALL      0.000    0.254     0  05:00           0        6.18       0.000
  psk7                 OUTFALL      0.000    1.565     0  05:00           0        49.1       0.000
  psk8                 OUTFALL      0.000    0.000     0  00:00           0           0       0.000 ltr
  
  
  **********************
  Node Surcharge Summary
  **********************
  
  Surcharging occurs when water rises above the top of the highest conduit.
  ---------------------------------------------------------------------
                                               Max. Height   Min. Depth
                                   Hours       Above Crown    Below Rim
  Node                 Type      Surcharged         Meters       Meters
  ---------------------------------------------------------------------
  jd3                  JUNCTION       22.37          2.200        0.000
  jd4                  JUNCTION        2.91          2.200        0.000
  jd8                  JUNCTION       15.84          2.200        0.000
  jd9                  JUNCTION        5.34          2.200        0.000
  jd10                 JUNCTION       22.54          2.400        0.000
  jd12                 JUNCTION       22.85          2.400        0.000
  jd17                 JUNCTION       19.72          2.200        0.000
  jd19                 JUNCTION        1.30          2.200        0.000
  jd21                 JUNCTION       22.53          2.200        0.000
  jd22                 JUNCTION       21.36          2.163        0.237
  jd28                 JUNCTION       23.04          2.400        0.000
  jd31                 JUNCTION       21.24          1.712        0.488
  jd32                 JUNCTION       22.95          2.200        0.000
  jd35                 JUNCTION       23.24          2.400        0.000
  jd39                 JUNCTION       22.41          2.000        0.000
  jd40                 JUNCTION        0.51          2.200        0.000
  jd41                 JUNCTION       20.90          1.000        0.000
  jd43                 JUNCTION        0.14          2.200        0.000
  jd44                 JUNCTION        0.39          2.000        0.000
  jd45                 JUNCTION       22.79          2.000        0.000
  jd50                 JUNCTION       23.09          2.200        0.000
  jd51                 JUNCTION       20.80          1.350        0.000
  jd55                 JUNCTION        0.76          0.153        1.347
  jd59                 JUNCTION       20.72          1.500        0.000
  jd60                 JUNCTION       22.88          2.400        0.000
  jd64                 JUNCTION       20.73          1.800        0.000
  jd65                 JUNCTION        5.69          2.400        0.000
  jd66                 JUNCTION       22.09          2.200        0.000
  jd79                 JUNCTION       22.98          2.400        0.000
  jd80                 JUNCTION       20.77          2.400        0.000
  jd83                 JUNCTION       23.29          2.400        0.000
  jd85                 JUNCTION       22.25          2.400        0.000
  jd87                 JUNCTION       22.73          2.400        0.000
  jd96                 JUNCTION       22.77          2.200        0.000
  jd99                 JUNCTION       22.20          2.400        0.000
  jd106                JUNCTION       21.17          2.000        0.000
  jd108                JUNCTION       22.77          0.257        1.743
  jd110                JUNCTION       21.83          2.000        0.000
  jd114                JUNCTION       22.82          2.000        0.000
  jd117                JUNCTION       22.40          0.510        1.690
  jd122                JUNCTION       22.51          2.200        0.000
  jd123                JUNCTION       22.32          2.200        0.000
  jd124                JUNCTION       23.42          2.400        0.000
  jd125                JUNCTION        2.23          2.200        0.000
  jd126                JUNCTION       23.26          2.400        0.000
  
  
  *********************
  Node Flooding Summary
  *********************
  
  Flooding refers to all water that overflows a node, whether it ponds or not.
  --------------------------------------------------------------------------
                                                             Total   Maximum
                                 Maximum   Time of Max       Flood    Ponded
                        Hours       Rate    Occurrence      Volume     Depth
  Node                 Flooded       CMS   days hr:min    10^6 ltr    Meters
  --------------------------------------------------------------------------
  jd3                    22.36     1.648      0  05:00      44.321     0.000
  jd4                     1.07     0.232      0  04:26       0.383     0.000
  jd8                     0.71     0.077      0  04:24       0.176     0.000
  jd9                     0.69     0.225      0  04:13       0.273     0.000
  jd10                   22.52     0.402      0  05:00       9.529     0.000
  jd12                   22.84     0.760      0  05:00      17.978     0.000
  jd17                    4.95     0.839      0  05:00       4.855     0.000
  jd19                    0.01     0.165      0  04:22       0.002     0.000
  jd21                   21.24     1.656      0  05:00      42.122     0.000
  jd28                   23.04     1.244      0  05:00      30.097     0.000
  jd32                   22.94     2.335      0  05:00      52.643     0.000
  jd35                   23.23     1.943      0  05:00      47.427     0.000
  jd39                   22.40     2.822      0  05:00      69.234     0.000
  jd40                    0.33     0.465      0  04:39       0.088     0.000
  jd41                   20.89     3.180      0  05:00      75.595     0.000
  jd43                    0.11     0.230      0  04:55       0.048     0.000
  jd44                    0.01     0.514      0  04:45       0.008     0.000
  jd45                   22.78     2.664      0  05:00      58.090     0.000
  jd50                   23.09     3.232      0  05:00     108.223     0.000
  jd51                   20.79     1.228      0  05:00      28.082     0.000
  jd59                   20.71     0.888      0  05:00      20.041     0.000
  jd60                   22.87     0.680      0  05:00      16.187     0.000
  jd64                    0.01     0.399      0  04:17       0.012     0.000
  jd65                    5.47     1.667      0  05:00      11.423     0.000
  jd66                   22.04     1.091      0  05:00      25.943     0.000
  jd79                   14.75     1.025      0  05:00      12.514     0.000
  jd80                    7.15     0.802      0  05:00       9.706     0.000
  jd83                   23.28     0.768      0  05:00      19.629     0.000
  jd85                   22.12     0.283      0  05:00       6.679     0.000
  jd87                   22.72     0.339      0  05:00       8.059     0.000
  jd96                   22.75     0.367      0  05:00       8.741     0.000
  jd99                   22.16     0.260      0  05:00       6.696     0.000
  jd106                  21.17     0.671      0  05:00      15.537     0.000
  jd110                  21.82     0.347      0  05:00       8.243     0.000
  jd114                  22.40     2.396      0  05:00      56.838     0.000
  jd122                  22.31     2.262      0  05:00      70.967     0.000
  jd123                  21.36     1.889      0  05:00      53.142     0.000
  jd124                  23.42     1.905      0  05:00      57.490     0.000
  jd125                   0.19     0.411      0  04:24       0.017     0.000
  jd126                  23.26     1.626      0  05:00      39.536     0.000
  
  
  ***********************
  Outfall Loading Summary
  ***********************
  
  -----------------------------------------------------------
                         Flow       Avg       Max       Total
                         Freq      Flow      Flow      Volume
  Outfall Node           Pcnt       CMS       CMS    10^6 ltr
  -----------------------------------------------------------
  psk1                  98.77     0.096     0.300       7.132
  psk2                  98.75     0.243     0.770      18.019
  psk3                  98.79     0.405     1.262      30.062
  psk4                   0.00     0.000     0.000       0.000
  psk5                  98.78     0.101     0.305       7.499
  psk6                  98.75     0.083     0.254       6.183
  psk7                  98.79     0.649     1.565      49.140
  psk8                   0.00     0.000     0.000       0.000
  -----------------------------------------------------------
  System                74.08     1.577     0.000     118.035
  
  
  ********************
  Link Flow Summary
  ********************
  
  -----------------------------------------------------------------------------
                                 Maximum  Time of Max   Maximum    Max/    Max/
                                  |Flow|   Occurrence   |Veloc|    Full    Full
  Link                 Type          CMS  days hr:min     m/sec    Flow   Depth
  -----------------------------------------------------------------------------
  GQ1                  CONDUIT     0.180     0  05:00      1.75    0.47    0.39
  GQ2                  CONDUIT     0.480     0  05:00      2.03    0.23    0.34
  GQ3                  CONDUIT     0.300     0  05:00      4.97    0.01    0.07
  GQ4                  CONDUIT     0.510     0  04:43      1.80    1.00    1.00
  GQ5                  CONDUIT     0.603     0  05:00      1.49    0.50    0.75
  GQ6                  CONDUIT     0.165     0  05:00      1.09    0.07    0.34
  GQ7                  CONDUIT     1.656     0  05:15      3.56    0.99    1.00
  GQ8                  CONDUIT     0.323     0  05:00      0.91    0.31    0.69
  GQ9                  CONDUIT     0.876     0  05:00      2.37    0.31    0.69
  GQ10                 CONDUIT     1.136     0  08:35      4.10    1.04    1.00
  GQ11                 CONDUIT     0.098     0  05:00      1.47    0.10    0.30
  GQ12                 CONDUIT     0.113     0  05:00      0.61    0.12    0.62
  GQ13                 CONDUIT     0.077     0  05:00      0.45    0.04    0.57
  GQ14                 CONDUIT     0.037     0  05:00      0.82    0.05    0.15
  GQ15                 CONDUIT     0.103     0  05:00      3.75    0.41    0.41
  GQ16                 CONDUIT     0.678     0  05:00      3.38    0.33    0.30
  GQ17                 CONDUIT     0.182     0  05:00      1.18    0.06    0.35
  GQ18                 CONDUIT     1.029     0  05:00      2.50    4.64    0.76
  GQ19                 CONDUIT     0.242     0  05:00      1.42    0.03    0.27
  GQ20                 CONDUIT     0.053     0  05:00      0.41    0.03    0.23
  GQ21                 CONDUIT     0.194     0  05:00      1.27    0.06    0.26
  GQ22                 CONDUIT     0.197     0  05:00      1.51    0.06    0.22
  GQ23                 CONDUIT     0.347     0  05:00      1.95    0.17    0.28
  GQ24                 CONDUIT     0.515     0  05:00      1.43    0.25    0.67
  GQ25                 CONDUIT     0.332     0  05:00      3.10    0.37    0.40
  GQ26                 CONDUIT     0.258     0  05:00      2.30    0.30    0.42
  GQ27                 CONDUIT     0.430     0  05:00      1.94    0.43    0.73
  GQ28                 CONDUIT     0.177     0  05:00      0.51    0.19    0.65
  GQ29                 CONDUIT     0.511     0  05:00      1.02    0.24    1.00
  GQ30                 CONDUIT     0.773     0  05:00      2.73    0.94    1.00
  GQ31                 CONDUIT     0.290     0  05:00      1.34    0.39    0.72
  GQ32                 CONDUIT     0.440     0  05:00      2.78    0.71    0.55
  GQ33                 CONDUIT     1.088     0  05:00      4.32    0.76    0.83
  GQ34                 CONDUIT     0.203     0  05:00      1.34    0.32    0.53
  GQ35                 CONDUIT     0.398     0  05:00      2.04    0.74    0.65
  GQ36                 CONDUIT     0.595     0  05:00      2.83    0.74    0.70
  GQ37                 CONDUIT     0.264     0  05:00      1.22    0.38    0.71
  GQ38                 CONDUIT     0.100     0  05:00      0.54    0.14    0.63
  GQ39                 CONDUIT     0.438     0  05:00      1.88    0.56    0.77
  GQ40                 CONDUIT     0.304     0  05:00      2.26    0.38    0.48
  GQ41                 CONDUIT     0.822     0  05:00      1.35    0.38    0.73
  GQ42                 CONDUIT     1.359     0  04:58      2.70    1.00    1.00
  GQ43                 CONDUIT     1.597     0  05:00      3.96    0.71    0.81
  GQ44                 CONDUIT     0.946     0  04:45      1.88    1.00    1.00
  GQ45                 CONDUIT     0.469     0  05:00      1.81    0.19    0.65
  GQ46                 CONDUIT     0.978     0  05:00      1.95    0.92    1.00
  GQ47                 CONDUIT     0.086     0  05:00      0.49    0.08    0.60
  GQ48                 CONDUIT     0.085     0  05:00      0.48    0.08    0.60
  GQ49                 CONDUIT     0.325     0  05:00      1.77    0.12    0.62
  GQ50                 CONDUIT     0.093     0  05:00      0.94    0.12    0.38
  GQ51                 CONDUIT     0.358     0  05:00      2.33    0.55    0.53
  GQ52                 CONDUIT     0.264     0  05:00      0.70    0.35    0.70
  GQ53                 CONDUIT     2.074     0  05:00      2.64    0.93    1.00
  GQ54                 CONDUIT     0.205     0  05:00      1.07    0.18    0.64
  GQ55                 CONDUIT     0.154     0  05:00      0.86    0.10    0.61
  GQ56                 CONDUIT     1.942     0  05:06      4.09    1.06    1.00
  GQ57                 CONDUIT     0.282     0  05:00      0.93    0.18    0.65
  GQ58                 CONDUIT     0.587     0  05:00      1.71    0.18    0.65
  GQ59                 CONDUIT     1.203     0  04:58      2.39    1.00    1.00
  GQ60                 CONDUIT     0.979     0  05:00      0.78    0.24    0.67
  GQ61                 CONDUIT     0.132     0  05:00      0.33    0.02    0.54
  GQ62                 CONDUIT     0.275     0  05:00      0.39    0.03    0.56
  GQ63                 CONDUIT     0.626     0  05:00      0.83    0.02    0.55
  GQ64                 CONDUIT     0.045     0  05:00      1.12    0.03    0.21
  GQ65                 CONDUIT     0.019     0  05:00      0.28    0.03    0.29
  GQ66                 CONDUIT     0.079     0  05:00      0.45    0.02    0.55
  GQ67                 CONDUIT     0.413     0  05:00      0.37    0.29    1.00
  GQ68                 CONDUIT     0.348     0  05:00      0.69    0.11    0.61
  GQ69                 CONDUIT     0.716     0  05:00      1.99    0.26    0.67
  GQ70                 CONDUIT     0.254     0  05:00      6.56    0.04    0.13
  GQ71                 CONDUIT     0.305     0  05:00      4.78    0.07    0.18
  GQ72                 CONDUIT     1.565     0  05:00      4.94    0.37    0.42
  GQ73                 CONDUIT     0.770     0  05:00     10.21    0.05    0.15
  GQ74                 CONDUIT     0.161     0  05:00      1.15    0.03    0.24
  GQ75                 CONDUIT     0.173     0  05:00      0.37    0.05    0.58
  GQ76                 CONDUIT     1.262     0  05:00      5.01    0.27    0.36
  GQ77                 CONDUIT     0.000     0  00:00      0.00    0.00    0.16
  GQ78                 CONDUIT     0.577     0  05:00      2.39    0.63    0.79
  GQ79                 CONDUIT     0.225     0  05:00      1.08    0.48    0.70
  GQ80                 CONDUIT     0.213     0  05:00      0.88    0.35    0.79
  GQ81                 CONDUIT     0.303     0  20:22      1.07    1.92    1.00
  GQ82                 CONDUIT     0.272     0  05:00      1.41    0.19    0.65
  GQ83                 CONDUIT     0.294     0  05:00      2.42    0.19    0.44
  GQ84                 CONDUIT     0.587     0  05:00      2.62    0.47    0.74
  GQ85                 CONDUIT     0.171     0  05:00      0.76    0.30    0.74
  GQ86                 CONDUIT     0.081     0  05:00      0.49    0.03    0.56
  GQ87                 CONDUIT     0.029     0  05:00      0.17    0.04    0.57
  GQ88                 CONDUIT     0.198     0  05:00      1.03    0.18    0.64
  GQ89                 CONDUIT     0.163     0  05:00      0.83    0.22    0.66
  GQ90                 CONDUIT     0.167     0  05:00      0.88    0.17    0.64
  GQ91                 CONDUIT     0.141     0  05:00      0.74    0.17    0.64
  GQ92                 CONDUIT     0.332     0  05:00      1.58    0.48    0.44
  GQ93                 CONDUIT     0.351     0  05:00      1.34    0.30    0.52
  GQ94                 CONDUIT     0.647     0  05:00      1.91    0.77    0.64
  GQ95                 CONDUIT     0.091     0  05:00      0.32    0.02    0.55
  GQ96                 CONDUIT     0.296     0  05:00      1.18    0.51    0.50
  GQ97                 CONDUIT     0.166     0  05:00      1.71    0.30    0.37
  GQ98                 CONDUIT     0.180     0  05:00      0.87    0.26    0.69
  GQ99                 CONDUIT     0.299     0  05:00      0.56    0.02    0.54
  GQ100                CONDUIT     0.214     0  05:00      2.50    0.37    0.34
  GQ101                CONDUIT     0.149     0  05:00      0.82    0.11    0.61
  GQ102                CONDUIT     0.575     0  05:00      1.69    0.17    0.64
  GQ103                CONDUIT     0.288     0  05:00      1.30    0.44    0.73
  GQ104                CONDUIT     0.520     0  05:00      2.41    0.38    0.71
  GQ105                CONDUIT     0.315     0  19:04      0.63    1.00    1.00
  GQ106                CONDUIT     0.169     0  05:00      0.88    0.17    0.64
  GQ107                CONDUIT     0.624     0  05:00      2.68    0.56    0.77
  GQ108                CONDUIT     0.829     0  05:00      1.65    1.00    1.00
  GQ109                CONDUIT     0.121     0  05:00      1.17    0.16    0.40
  GQ110                CONDUIT     0.200     0  05:00      0.59    0.03    0.56
  GQ111                CONDUIT     0.181     0  05:00      0.95    0.16    0.64
  GQ112                CONDUIT     0.551     0  05:00      2.52    0.10    0.25
  GQ113                CONDUIT     0.304     0  05:00      3.14    0.23    0.37
  GQ114                CONDUIT     0.183     0  05:00      0.36    0.07    0.61
  GQ115                CONDUIT     0.079     0  05:00      0.80    0.01    0.14
  GQ116                CONDUIT     0.114     0  05:00      0.26    0.02    0.54
  GQ117                CONDUIT     0.403     0  05:00      3.76    0.25    0.27
  GQ118                CONDUIT     0.153     0  05:00      1.52    0.05    0.27
  GQ119                CONDUIT     1.658     0  05:00      3.72    0.72    0.83
  GQ120                CONDUIT     0.000     0  00:00      0.00    0.00    0.50
  GQ121                CONDUIT     0.556     0  05:00      1.11    0.39    1.00
  GQ122                CONDUIT     0.232     0  05:00      0.97    0.04    0.57
  GQ123                CONDUIT     0.155     0  05:00      0.98    0.07    0.59
  GQ124                CONDUIT     0.097     0  05:00      0.84    0.04    0.28
  GQ125                CONDUIT     0.193     0  05:00      0.98    0.22    0.66
  GQ126                CONDUIT     0.237     0  05:00      1.19    0.23    0.66
  GQ127                CONDUIT     0.558     0  05:00      1.64    0.71    0.64
  GQ128                CONDUIT     0.810     0  05:00      2.32    0.18    0.36
  GQ129                CONDUIT     1.313     0  05:00      2.61    1.00    1.00
  GQ130                CONDUIT     1.073     0  05:00      3.79    1.00    1.00
  GQ131                CONDUIT     0.471     0  05:00      2.03    0.55    0.76
  
  
  ***************************
  Flow Classification Summary
  ***************************
  
  -------------------------------------------------------------------------------------
                      Adjusted    ---------- Fraction of Time in Flow Class ---------- 
                       /Actual         Up    Down  Sub   Sup   Up    Down  Norm  Inlet 
  Conduit               Length    Dry  Dry   Dry   Crit  Crit  Crit  Crit  Ltd   Ctrl  
  -------------------------------------------------------------------------------------
  GQ1                     1.00   0.01  0.00  0.00  0.01  0.98  0.00  0.00  0.00  0.00
  GQ2                     1.00   0.01  0.00  0.00  0.01  0.97  0.00  0.00  0.96  0.00
  GQ3                     1.00   0.01  0.00  0.00  0.00  0.99  0.00  0.00  0.14  0.00
  GQ4                     1.00   0.01  0.00  0.00  0.99  0.00  0.00  0.00  0.67  0.00
  GQ5                     1.00   0.01  0.00  0.00  0.99  0.00  0.00  0.00  0.96  0.00
  GQ6                     1.00   0.01  0.00  0.00  0.98  0.01  0.00  0.00  0.96  0.00
  GQ7                     1.00   0.01  0.00  0.00  0.05  0.94  0.00  0.00  0.15  0.00
  GQ8                     1.00   0.01  0.00  0.00  0.99  0.00  0.00  0.00  0.95  0.00
  GQ9                     1.00   0.01  0.00  0.00  0.96  0.03  0.00  0.00  0.96  0.00
  GQ10                    1.00   0.01  0.00  0.00  0.44  0.55  0.00  0.00  0.71  0.00
  GQ11                    1.00   0.01  0.00  0.00  0.20  0.79  0.00  0.00  0.96  0.00
  GQ12                    1.00   0.01  0.00  0.00  0.98  0.00  0.00  0.00  0.96  0.00
  GQ13                    1.00   0.01  0.00  0.00  0.99  0.00  0.00  0.00  0.96  0.00
  GQ14                    1.00   0.01  0.00  0.00  0.99  0.00  0.00  0.00  0.00  0.00
  GQ15                    1.00   0.01  0.00  0.00  0.00  0.99  0.00  0.00  0.01  0.00
  GQ16                    1.00   0.01  0.00  0.00  0.00  0.99  0.00  0.00  0.00  0.00
  GQ17                    1.00   0.01  0.00  0.00  0.97  0.02  0.00  0.00  0.96  0.00
  GQ18                    1.00   0.01  0.00  0.00  0.94  0.04  0.00  0.00  0.02  0.00
  GQ19                    1.00   0.01  0.00  0.00  0.91  0.07  0.00  0.00  0.96  0.00
  GQ20                    1.00   0.01  0.00  0.00  0.99  0.00  0.00  0.00  0.96  0.00
  GQ21                    1.00   0.01  0.00  0.00  0.15  0.84  0.00  0.00  0.96  0.00
  GQ22                    1.00   0.01  0.00  0.00  0.02  0.97  0.00  0.00  0.96  0.00
  GQ23                    1.00   0.01  0.00  0.00  0.00  0.99  0.00  0.00  0.06  0.00
  GQ24                    1.00   0.01  0.00  0.00  0.99  0.00  0.00  0.00  0.96  0.00
  GQ25                    1.00   0.01  0.00  0.00  0.00  0.99  0.00  0.00  0.00  0.00
  GQ26                    1.00   0.01  0.00  0.00  0.00  0.99  0.00  0.00  0.94  0.00
  GQ27                    1.00   0.01  0.00  0.00  0.96  0.03  0.00  0.00  0.96  0.00
  GQ28                    1.00   0.01  0.00  0.00  0.99  0.00  0.00  0.00  0.96  0.00
  GQ29                    1.00   0.01  0.00  0.00  0.99  0.00  0.00  0.00  0.06  0.00
  GQ30                    1.00   0.01  0.00  0.00  0.98  0.01  0.00  0.00  0.05  0.00
  GQ31                    1.00   0.01  0.00  0.00  0.99  0.00  0.00  0.00  0.96  0.00
  GQ32                    1.00   0.01  0.00  0.00  0.00  0.99  0.00  0.00  0.01  0.00
  GQ33                    1.00   0.01  0.00  0.00  0.64  0.35  0.00  0.00  0.94  0.00
  GQ34                    1.00   0.01  0.00  0.00  0.99  0.00  0.00  0.00  0.96  0.00
  GQ35                    1.00   0.01  0.00  0.00  0.00  0.99  0.00  0.00  0.80  0.00
  GQ36                    1.00   0.01  0.00  0.00  0.00  0.99  0.00  0.00  0.95  0.00
  GQ37                    1.00   0.01  0.00  0.00  0.99  0.00  0.00  0.00  0.96  0.00
  GQ38                    1.00   0.01  0.00  0.00  0.99  0.00  0.00  0.00  0.96  0.00
  GQ39                    1.00   0.01  0.00  0.00  0.98  0.01  0.00  0.00  0.96  0.00
  GQ40                    1.00   0.01  0.00  0.00  0.00  0.98  0.00  0.00  0.96  0.00
  GQ41                    1.00   0.01  0.00  0.00  0.99  0.00  0.00  0.00  0.94  0.00
  GQ42                    1.00   0.01  0.00  0.00  0.99  0.00  0.00  0.00  0.84  0.00
  GQ43                    1.00   0.01  0.00  0.00  0.00  0.99  0.00  0.00  0.96  0.00
  GQ44                    1.00   0.01  0.00  0.00  0.99  0.00  0.00  0.00  0.64  0.00
  GQ45                    1.00   0.01  0.00  0.00  0.18  0.81  0.00  0.00  0.96  0.00
  GQ46                    1.00   0.01  0.00  0.00  0.39  0.60  0.00  0.00  0.78  0.00
  GQ47                    1.00   0.01  0.00  0.00  0.99  0.00  0.00  0.00  0.96  0.00
  GQ48                    1.00   0.01  0.00  0.00  0.99  0.00  0.00  0.00  0.96  0.00
  GQ49                    1.00   0.01  0.00  0.00  0.98  0.01  0.00  0.00  0.96  0.00
  GQ50                    1.00   0.01  0.00  0.00  0.99  0.00  0.00  0.00  0.96  0.00
  GQ51                    1.00   0.01  0.00  0.00  0.00  0.99  0.00  0.00  0.86  0.00
  GQ52                    1.00   0.01  0.00  0.00  0.99  0.00  0.00  0.00  0.92  0.00
  GQ53                    1.00   0.01  0.00  0.00  0.99  0.00  0.00  0.00  0.89  0.00
  GQ54                    1.00   0.01  0.00  0.00  0.99  0.00  0.00  0.00  0.96  0.00
  GQ55                    1.00   0.01  0.00  0.00  0.99  0.00  0.00  0.00  0.96  0.00
  GQ56                    1.00   0.01  0.00  0.00  0.02  0.97  0.00  0.00  0.87  0.00
  GQ57                    1.00   0.01  0.00  0.00  0.99  0.00  0.00  0.00  0.96  0.00
  GQ58                    1.00   0.01  0.00  0.00  0.98  0.00  0.00  0.00  0.96  0.00
  GQ59                    1.00   0.01  0.00  0.00  0.99  0.00  0.00  0.00  0.89  0.00
  GQ60                    1.00   0.01  0.00  0.00  0.99  0.00  0.00  0.00  0.11  0.00
  GQ61                    1.00   0.01  0.00  0.00  0.99  0.00  0.00  0.00  0.96  0.00
  GQ62                    1.00   0.01  0.00  0.00  0.99  0.00  0.00  0.00  0.96  0.00
  GQ63                    1.00   0.01  0.00  0.00  0.98  0.01  0.00  0.00  0.96  0.00
  GQ64                    1.00   0.01  0.00  0.00  0.12  0.87  0.00  0.00  0.96  0.00
  GQ65                    1.00   0.01  0.00  0.00  0.99  0.00  0.00  0.00  0.96  0.00
  GQ66                    1.00   0.01  0.00  0.00  0.98  0.00  0.00  0.00  0.96  0.00
  GQ67                    1.00   0.01  0.00  0.00  0.99  0.00  0.00  0.00  0.03  0.00
  GQ68                    1.00   0.01  0.00  0.00  0.99  0.00  0.00  0.00  0.96  0.00
  GQ69                    1.00   0.01  0.00  0.00  0.98  0.01  0.00  0.00  0.96  0.00
  GQ70                    1.00   0.01  0.00  0.00  0.00  0.99  0.00  0.00  0.00  0.00
  GQ71                    1.00   0.01  0.00  0.00  0.00  0.99  0.00  0.00  0.06  0.00
  GQ72                    1.00   0.01  0.00  0.00  0.00  0.99  0.00  0.00  0.21  0.00
  GQ73                    1.00   0.01  0.00  0.00  0.00  0.99  0.00  0.00  0.01  0.00
  GQ74                    1.00   0.01  0.00  0.00  0.96  0.03  0.00  0.00  0.96  0.00
  GQ75                    1.00   0.01  0.00  0.00  0.99  0.00  0.00  0.00  0.96  0.00
  GQ76                    1.00   0.01  0.00  0.00  0.00  0.99  0.00  0.00  0.12  0.00
  GQ77                    1.00   0.01  0.99  0.00  0.00  0.00  0.00  0.00  0.00  0.00
  GQ78                    1.00   0.01  0.00  0.00  0.95  0.04  0.00  0.00  0.94  0.00
  GQ79                    1.00   0.01  0.00  0.00  0.99  0.00  0.00  0.00  0.04  0.00
  GQ80                    1.00   0.01  0.00  0.00  0.99  0.00  0.00  0.00  0.73  0.00
  GQ81                    1.00   0.01  0.00  0.00  0.99  0.00  0.00  0.00  0.03  0.00
  GQ82                    1.00   0.01  0.00  0.00  0.98  0.01  0.00  0.00  0.96  0.00
  GQ83                    1.00   0.01  0.00  0.00  0.00  0.99  0.00  0.00  0.96  0.00
  GQ84                    1.00   0.01  0.00  0.00  0.05  0.94  0.00  0.00  0.96  0.00
  GQ85                    1.00   0.01  0.00  0.00  0.99  0.00  0.00  0.00  0.81  0.00
  GQ86                    1.00   0.01  0.00  0.00  0.99  0.00  0.00  0.00  0.96  0.00
  GQ87                    1.00   0.01  0.00  0.00  0.99  0.00  0.00  0.00  0.96  0.00
  GQ88                    1.00   0.01  0.00  0.00  0.99  0.00  0.00  0.00  0.96  0.00
  GQ89                    1.00   0.01  0.00  0.00  0.99  0.00  0.00  0.00  0.96  0.00
  GQ90                    1.00   0.01  0.00  0.00  0.98  0.01  0.00  0.00  0.96  0.00
  GQ91                    1.00   0.01  0.00  0.00  0.98  0.00  0.00  0.00  0.96  0.00
  GQ92                    1.00   0.01  0.00  0.00  0.88  0.10  0.00  0.00  0.00  0.00
  GQ93                    1.00   0.01  0.00  0.00  0.99  0.00  0.00  0.00  0.96  0.00
  GQ94                    1.00   0.01  0.00  0.00  0.11  0.88  0.00  0.00  0.02  0.00
  GQ95                    1.00   0.01  0.00  0.00  0.99  0.00  0.00  0.00  0.96  0.00
  GQ96                    1.00   0.01  0.00  0.00  0.99  0.00  0.00  0.00  0.59  0.00
  GQ97                    1.00   0.01  0.00  0.00  0.00  0.99  0.00  0.00  0.27  0.00
  GQ98                    1.00   0.01  0.00  0.00  0.99  0.00  0.00  0.00  0.93  0.00
  GQ99                    1.00   0.01  0.00  0.00  0.98  0.00  0.00  0.00  0.96  0.00
  GQ100                   1.00   0.01  0.00  0.00  0.00  0.99  0.00  0.00  0.00  0.00
  GQ101                   1.00   0.01  0.00  0.00  0.98  0.00  0.00  0.00  0.96  0.00
  GQ102                   1.00   0.01  0.00  0.00  0.98  0.01  0.00  0.00  0.96  0.00
  GQ103                   1.00   0.01  0.00  0.00  0.99  0.00  0.00  0.00  0.96  0.00
  GQ104                   1.00   0.01  0.00  0.00  0.94  0.05  0.00  0.00  0.96  0.00
  GQ105                   1.00   0.01  0.00  0.00  0.99  0.00  0.00  0.00  0.03  0.00
  GQ106                   1.00   0.01  0.00  0.00  0.98  0.00  0.00  0.00  0.96  0.00
  GQ107                   1.00   0.01  0.00  0.00  0.89  0.10  0.00  0.00  0.96  0.00
  GQ108                   1.00   0.01  0.00  0.00  0.99  0.00  0.00  0.00  0.07  0.00
  GQ109                   1.00   0.01  0.00  0.00  0.95  0.03  0.00  0.00  0.96  0.00
  GQ110                   1.00   0.01  0.00  0.00  0.98  0.00  0.00  0.00  0.96  0.00
  GQ111                   1.00   0.01  0.00  0.00  0.98  0.00  0.00  0.00  0.96  0.00
  GQ112                   1.00   0.01  0.00  0.00  0.00  0.99  0.00  0.00  0.95  0.00
  GQ113                   1.00   0.01  0.00  0.00  0.00  0.99  0.00  0.00  0.95  0.00
  GQ114                   1.00   0.01  0.00  0.00  0.99  0.00  0.00  0.00  0.05  0.00
  GQ115                   1.00   0.01  0.00  0.00  0.97  0.01  0.00  0.00  0.96  0.00
  GQ116                   1.00   0.01  0.00  0.00  0.99  0.00  0.00  0.00  0.96  0.00
  GQ117                   1.00   0.01  0.00  0.00  0.00  0.99  0.00  0.00  0.00  0.00
  GQ118                   1.00   0.01  0.00  0.00  0.22  0.77  0.00  0.00  0.96  0.00
  GQ119                   1.00   0.01  0.00  0.00  0.80  0.19  0.00  0.00  0.93  0.00
  GQ120                   1.00   0.01  0.04  0.00  0.95  0.00  0.00  0.00  0.00  0.00
  GQ121                   1.00   0.01  0.00  0.00  0.98  0.00  0.00  0.00  0.05  0.00
  GQ122                   1.00   0.01  0.00  0.00  0.96  0.02  0.00  0.00  0.96  0.00
  GQ123                   1.00   0.01  0.00  0.00  0.97  0.02  0.00  0.00  0.96  0.00
  GQ124                   1.00   0.01  0.00  0.00  0.98  0.01  0.00  0.00  0.96  0.00
  GQ125                   1.00   0.01  0.00  0.00  0.98  0.00  0.00  0.00  0.96  0.00
  GQ126                   1.00   0.01  0.00  0.00  0.98  0.00  0.00  0.00  0.96  0.00
  GQ127                   1.00   0.01  0.00  0.00  0.99  0.00  0.00  0.00  0.78  0.00
  GQ128                   1.00   0.01  0.00  0.00  0.00  0.99  0.00  0.00  0.93  0.00
  GQ129                   1.00   0.01  0.00  0.00  0.99  0.00  0.00  0.00  0.69  0.00
  GQ130                   1.00   0.01  0.00  0.00  0.78  0.21  0.00  0.00  0.69  0.00
  GQ131                   1.00   0.01  0.00  0.00  0.99  0.00  0.00  0.00  0.96  0.00
  
  
  *************************
  Conduit Surcharge Summary
  *************************
  
  ----------------------------------------------------------------------------
                                                           Hours        Hours 
                         --------- Hours Full --------   Above Full   Capacity
  Conduit                Both Ends  Upstream  Dnstream   Normal Flow   Limited
  ----------------------------------------------------------------------------
  GQ4                         4.23      4.23     22.70      0.01         0.01
  GQ5                         0.01      0.01     22.37      0.01         0.01
  GQ7                         0.60      0.60      2.23      0.01         0.01
  GQ8                         0.01      0.01      0.60      0.01         0.01
  GQ9                         0.01      0.01     23.09      0.01         0.01
  GQ10                        5.69      5.69     23.19      0.41         0.01
  GQ12                        0.01      0.01     21.16      0.01         0.01
  GQ13                        0.01      0.01      2.91      0.01         0.01
  GQ18                        0.01      0.01     15.83     20.51         0.01
  GQ24                        0.01      0.01     22.95      0.01         0.01
  GQ27                        0.01      0.01     21.36      0.01         0.01
  GQ28                        0.01      0.01     22.53      0.01         0.01
  GQ29                       21.24     21.24     22.53      0.01         0.01
  GQ30                       21.36     21.36     22.78      0.01         0.01
  GQ31                        0.01      0.01     23.24      0.01         0.01
  GQ33                        0.01      0.01     23.24      0.01         0.01
  GQ37                        0.01      0.01     23.04      0.01         0.01
  GQ38                        0.01      0.01     23.04      0.01         0.01
  GQ39                        0.01      0.01     21.16      0.01         0.01
  GQ41                        0.01      0.01     22.41      0.01         0.01
  GQ42                        0.51      0.51     22.66      0.01         0.01
  GQ43                        0.01      0.01      0.51      0.01         0.01
  GQ44                        5.34      5.34     15.83      0.01         0.01
  GQ45                        0.01      0.01      1.30      0.01         0.01
  GQ46                        1.30      1.30      5.34      0.01         0.01
  GQ47                        0.01      0.01     22.54      0.01         0.01
  GQ48                        0.01      0.01     22.85      0.01         0.01
  GQ49                        0.01      0.01     22.85      0.01         0.01
  GQ52                        0.01      0.01     21.24      0.01         0.01
  GQ53                        0.39      0.39     22.79      0.01         0.01
  GQ54                        0.01      0.01     22.88      0.01         0.01
  GQ55                        0.01      0.01     22.88      0.01         0.01
  GQ56                        0.14      0.14      0.60      0.45         0.11
  GQ57                        0.01      0.01      0.14      0.01         0.01
  GQ58                        0.01      0.01     21.72      0.01         0.01
  GQ59                        0.51      0.51     21.72      0.01         0.01
  GQ60                        0.01      0.01      0.76      0.01         0.01
  GQ61                        0.01      0.01     20.72      0.01         0.01
  GQ62                        0.01      0.01     20.80      0.01         0.01
  GQ63                        0.01      0.01     20.90      0.01         0.01
  GQ66                        0.01      0.01     20.90      0.01         0.01
  GQ67                       20.73     20.73     20.80      0.01         0.01
  GQ68                        0.01      0.01     21.20      0.01         0.01
  GQ69                        0.01      0.01     22.09      0.01         0.01
  GQ75                        0.01      0.01     21.17      0.01         0.01
  GQ78                        0.01      0.01     22.98      0.01         0.01
  GQ79                        0.01      0.01     22.98      0.01         0.01
  GQ80                        0.01      0.01     20.77      0.01         0.01
  GQ81                       20.77     20.77     21.16     18.70        13.75
  GQ82                        0.01      0.01     21.16      0.01         0.01
  GQ84                        0.01      0.01      0.70      0.01         0.01
  GQ85                        0.01      0.01     23.29      0.01         0.01
  GQ86                        0.01      0.01     22.24      0.01         0.01
  GQ87                        0.01      0.01     22.24      0.01         0.01
  GQ88                        0.01      0.01     22.73      0.01         0.01
  GQ89                        0.01      0.01     21.34      0.01         0.01
  GQ90                        0.01      0.01     21.08      0.01         0.01
  GQ91                        0.01      0.01     21.63      0.01         0.01
  GQ95                        0.01      0.01     22.77      0.01         0.01
  GQ98                        0.01      0.01     22.20      0.01         0.01
  GQ99                        0.01      0.01     20.84      0.01         0.01
  GQ101                       0.01      0.01     21.59      0.01         0.01
  GQ102                       0.01      0.01     22.51      0.01         0.01
  GQ103                       0.01      0.01     22.85      0.01         0.01
  GQ104                       0.01      0.01     22.85      0.01         0.01
  GQ105                      22.32     22.32     22.51     21.03         0.01
  GQ106                       0.01      0.01     22.53      0.01         0.01
  GQ107                       0.01      0.01     22.53      0.01         0.01
  GQ108                      19.72     19.72     22.32      0.01         0.01
  GQ110                       0.01      0.01     21.17      0.01         0.01
  GQ111                       0.01      0.01     21.62      0.01         0.01
  GQ114                       0.01      0.01     22.77      0.01         0.01
  GQ116                       0.01      0.01     21.83      0.01         0.01
  GQ119                       0.01      0.01     22.93      0.01         0.01
  GQ120                       0.01      0.01     22.82      0.01         0.01
  GQ121                      22.40     22.40     22.93      0.01         0.01
  GQ122                       0.01      0.01     22.40      0.01         0.01
  GQ123                       0.01      0.01     22.52      0.01         0.01
  GQ125                       0.01      0.01     21.63      0.01         0.01
  GQ126                       0.01      0.01     21.59      0.01         0.01
  GQ129                       2.23      2.23     22.95      0.01         0.01
  GQ130                       3.05      3.05     23.42      0.01         0.01
  GQ131                       0.01      0.01     23.26      0.01         0.01
  

  Analysis begun on:  Sat Mar 25 16:23:55 2023
  Analysis ended on:  Sat Mar 25 16:24:02 2023
  Total elapsed time: 00:00:07