
  OWA STORM WATER MANAGEMENT MODEL - VERSION v5.1.14 (OWA 2022-07-31)
  --------------------------------------------------------------

  INP file created by DSDAConvertToSwmmTools 
  version 0.0.1 EcoVista 
  Title/Notes: 
  
  
  *********************************************************
  NOTE: The summary statistics displayed in this report are
  based on results found at every computational time step,  
  not just on results from each reporting time step.
  *********************************************************
  
  ****************
  Analysis Options
  ****************
  Flow Units ............... CMS
  Process Models:
    Rainfall/Runoff ........ YES
    RDII ................... NO
    Snowmelt ............... NO
    Groundwater ............ NO
    Flow Routing ........... YES
    Ponding Allowed ........ NO
    Water Quality .......... NO
  Infiltration Method ...... GREEN_AMPT
  Flow Routing Method ...... DYNWAVE
  Surcharge Method ......... EXTRAN
  Starting Date ............ 07/15/2020 00:00:00
  Ending Date .............. 07/15/2020 10:00:00
  Antecedent Dry Days ...... 0.0
  Report Time Step ......... 00:30:00
  Wet Time Step ............ 00:05:00
  Dry Time Step ............ 01:00:00
  Routing Time Step ........ 30.00 sec
  Variable Time Step ....... YES
  Maximum Trials ........... 8
  Number of Threads ........ 1
  Head Tolerance ........... 0.001500 m
  
  
  **************************        Volume         Depth
  Runoff Quantity Continuity     hectare-m            mm
  **************************     ---------       -------
  Total Precipitation ......       169.852        42.500
  Evaporation Loss .........         3.373         0.844
  Infiltration Loss ........        45.392        11.358
  Surface Runoff ...........       113.703        28.451
  Final Storage ............         7.513         1.880
  Continuity Error (%) .....        -0.076
  
  
  **************************        Volume        Volume
  Flow Routing Continuity        hectare-m      10^6 ltr
  **************************     ---------     ---------
  Dry Weather Inflow .......         0.000         0.000
  Wet Weather Inflow .......       113.624      1136.254
  Groundwater Inflow .......         0.000         0.000
  RDII Inflow ..............         0.000         0.000
  External Inflow ..........         0.000         0.000
  External Outflow .........         9.895        98.947
  Flooding Loss ............       102.196      1021.968
  Evaporation Loss .........         0.000         0.000
  Exfiltration Loss ........         0.000         0.000
  Initial Stored Volume ....         0.000         0.000
  Final Stored Volume ......         1.356        13.559
  Continuity Error (%) .....         0.157
  
  
  *************************
  Highest Continuity Errors
  *************************
  Node jd51 (4.78%)
  Node jd64 (3.89%)
  Node jd59 (3.82%)
  Node jd31 (3.58%)
  Node jd41 (3.38%)
  
  
  ***************************
  Time-Step Critical Elements
  ***************************
  Link GQ73 (94.10%)
  
  
  ********************************
  Highest Flow Instability Indexes
  ********************************
  Link GQ67 (13)
  Link GQ114 (11)
  Link GQ121 (4)
  Link GQ29 (4)
  Link GQ60 (3)
  
  
  *************************
  Routing Time Step Summary
  *************************
  Minimum Time Step           :     0.65 sec
  Average Time Step           :     8.29 sec
  Maximum Time Step           :    30.00 sec
  Percent in Steady State     :    -0.00
  Average Iterations per Step :     4.10
  Percent Not Converging      :    14.90
  
  
  ***************************
  Subcatchment Runoff Summary
  ***************************
  
  ------------------------------------------------------------------------------------------------------------------------------
                            Total      Total      Total      Total     Imperv       Perv      Total       Total     Peak  Runoff
                           Precip      Runon       Evap      Infil     Runoff     Runoff     Runoff      Runoff   Runoff   Coeff
  Subcatchment                 mm         mm         mm         mm         mm         mm         mm    10^6 ltr      CMS
  ------------------------------------------------------------------------------------------------------------------------------
  1                         42.50       0.00       0.51      23.81      17.23       0.00      17.23        6.82     0.68   0.405
  2                         42.50       0.00       0.91       9.05      30.33       0.00      30.33       27.42     2.77   0.714
  3                         42.50       0.00       0.94       7.75      31.82       0.00      31.82       12.73     1.29   0.749
  4                         42.50       0.00       0.97       6.66      32.98       0.00      32.98        2.77     0.28   0.776
  5                         42.50       0.00       0.86      10.82      29.16       0.00      29.16        3.61     0.36   0.686
  6                         42.50       0.00       0.82      12.18      27.96       0.00      27.96        2.60     0.26   0.658
  7                         42.50       0.00       0.86      10.87      28.81       0.00      28.81       12.56     1.27   0.678
  8                         42.50       0.00       1.09       2.38      36.69       0.00      36.69        5.11     0.52   0.863
  9                         42.50       0.00       1.12       1.19      37.85       0.00      37.85        4.43     0.45   0.891
  10                        42.50       0.00       0.96       6.91      32.62       0.00      32.62        7.35     0.74   0.768
  11                        42.50       0.00       1.04       4.06      35.11       0.00      35.11       17.40     1.76   0.826
  12                        42.50       0.00       0.82      12.22      27.75       0.00      27.75       13.54     1.37   0.653
  13                        42.50       0.00       1.03       4.58      34.66       0.00      34.66       15.68     1.59   0.815
  14                        42.50       0.00       1.03       4.64      34.74       0.00      34.74        6.56     0.66   0.817
  15                        42.50       0.00       0.95       7.47      32.08       0.00      32.08       10.84     1.10   0.755
  16                        42.50       0.00       0.98       6.17      33.21       0.00      33.21        9.81     0.99   0.782
  17                        42.50       0.00       0.92       8.48      31.15       0.00      31.15       13.03     1.32   0.733
  18                        42.50       0.00       1.06       3.34      35.76       0.00      35.76       14.76     1.49   0.841
  19                        42.50       0.00       1.06       3.50      35.59       0.00      35.59        8.00     0.81   0.837
  20                        42.50       0.00       1.05       3.73      35.17       0.00      35.17       18.87     1.91   0.827
  21                        42.50       0.00       1.12       1.25      37.65       0.00      37.65       11.81     1.20   0.886
  22                        42.50       0.00       1.10       2.01      36.92       0.00      36.92        4.54     0.46   0.869
  23                        42.50       0.00       1.01       5.20      33.99       0.00      33.99       19.46     1.97   0.800
  24                        42.50       0.00       0.98       6.49      32.79       0.00      32.79        5.81     0.59   0.772
  25                        42.50       0.00       1.04       3.99      35.29       0.00      35.29        7.15     0.72   0.830
  26                        42.50       0.00       0.89       9.70      29.79       0.00      29.79       10.46     1.06   0.701
  27                        42.50       0.00       1.07       3.18      35.67       0.00      35.67       15.08     1.53   0.839
  28                        42.50       0.00       1.09       2.34      36.54       0.00      36.54       17.28     1.75   0.860
  29                        42.50       0.00       0.97       6.60      32.96       0.00      32.96        7.69     0.78   0.775
  30                        42.50       0.00       1.11       1.43      37.76       0.00      37.76        2.71     0.27   0.888
  31                        42.50       0.00       1.13       0.89      38.03       0.00      38.03        8.38     0.85   0.895
  32                        42.50       0.00       1.10       1.89      37.07       0.00      37.07       16.02     1.62   0.872
  33                        42.50       0.00       1.11       1.38      37.48       0.00      37.48       13.21     1.34   0.882
  34                        42.50       0.00       1.04       4.30      34.91       0.00      34.91       10.23     1.04   0.821
  35                        42.50       0.00       1.06       3.21      35.89       0.00      35.89       14.89     1.51   0.845
  36                        42.50       0.00       0.88      10.12      29.69       0.00      29.69       11.68     1.18   0.699
  37                        42.50       0.00       1.09       2.29      36.71       0.00      36.71        8.15     0.82   0.864
  38                        42.50       0.00       1.02       4.81      34.48       0.00      34.48       13.15     1.33   0.811
  39                        42.50       0.00       0.92       8.45      31.21       0.00      31.21       13.18     1.33   0.734
  40                        42.50       0.00       1.03       4.60      34.66       0.00      34.66        7.92     0.80   0.815
  41                        42.50       0.00       1.05       3.74      35.53       0.00      35.53        7.01     0.71   0.836
  42                        42.50       0.00       1.05       3.78      35.19       0.00      35.19        8.69     0.88   0.828
  43                        42.50       0.00       0.88       9.94      29.67       0.00      29.67       23.45     2.37   0.698
  44                        42.50       0.00       0.94       7.75      31.66       0.00      31.66       15.30     1.55   0.745
  45                        42.50       0.00       0.88       9.86      29.81       0.00      29.81       21.57     2.18   0.701
  46                        42.50       0.00       0.85      10.98      28.97       0.00      28.97       14.48     1.46   0.682
  47                        42.50       0.00       0.90       9.40      30.23       0.00      30.23       35.24     3.56   0.711
  48                        42.50       0.00       1.07       2.94      35.85       0.00      35.85       20.81     2.11   0.844
  49                        42.50       0.00       0.98       6.30      32.84       0.00      32.84       22.23     2.25   0.773
  50                        42.50       0.00       1.09       2.39      36.13       0.00      36.13       14.20     1.43   0.850
  51                        42.50       0.00       1.04       4.13      34.64       0.00      34.64        6.48     0.65   0.815
  52                        42.50       0.00       0.51      23.84      17.26       0.00      17.26       17.71     1.77   0.406
  53                        42.50       0.00       0.73      15.48      24.88       0.00      24.88       26.50     2.66   0.585
  54                        42.50       0.00       0.90       9.15      30.55       0.00      30.55        7.45     0.75   0.719
  55                        42.50       0.00       0.52      23.41      17.65       0.00      17.65       13.93     1.40   0.415
  56                        42.50       0.00       0.20      35.30       6.75       0.00       6.75        5.50     0.54   0.159
  57                        42.50       0.00       1.02       4.73      34.26       0.00      34.26       28.46     2.88   0.806
  58                        42.50       0.00       0.95       7.51      32.04       0.00      32.04        5.27     0.53   0.754
  59                        42.50       0.00       0.93       8.34      31.43       0.00      31.43        4.00     0.40   0.740
  60                        42.50       0.00       0.35      29.70      11.90       0.00      11.90        3.41     0.34   0.280
  61                        42.50       0.00       0.54      22.59      18.29       0.00      18.29        6.89     0.69   0.430
  62                        42.50       0.00       0.75      14.79      25.31       0.00      25.31       29.66     2.99   0.596
  63                        42.50       0.00       1.02       4.68      34.15       0.00      34.15       66.04     6.67   0.803
  64                        42.50       0.00       0.76      14.29      25.92       0.00      25.92        5.56     0.56   0.610
  65                        42.50       0.00       1.04       4.15      34.68       0.00      34.68       23.32     2.36   0.816
  66                        42.50       0.00       0.82      12.29      27.53       0.00      27.53        7.01     0.71   0.648
  67                        42.50       0.00       0.77      14.27      25.99       0.00      25.99        8.40     0.84   0.612
  68                        42.50       0.00       0.92       8.63      31.07       0.00      31.07        3.45     0.35   0.731
  69                        42.50       0.00       0.54      22.62      18.46       0.00      18.46        5.91     0.59   0.434
  70                        42.50       0.00       0.76      14.53      25.62       0.00      25.62       21.08     2.13   0.603
  71                        42.50       0.00       0.94       7.94      31.69       0.00      31.69        3.89     0.39   0.746
  72                        42.50       0.00       0.99       6.07      33.40       0.00      33.40        4.16     0.42   0.786
  73                        42.50       0.00       0.89       9.49      30.37       0.00      30.37        5.04     0.51   0.714
  74                        42.50       0.00       0.85      11.04      28.93       0.00      28.93        6.23     0.63   0.681
  75                        42.50       0.00       0.95       7.53      32.08       0.00      32.08        4.62     0.47   0.755
  76                        42.50       0.00       1.00       5.71      33.78       0.00      33.78        3.27     0.33   0.795
  77                        42.50       0.00       1.06       3.27      35.90       0.00      35.90        3.89     0.39   0.845
  78                        42.50       0.00       1.03       4.65      34.61       0.00      34.61        3.80     0.38   0.814
  79                        42.50       0.00       0.45      25.90      15.38       0.00      15.38       16.31     1.63   0.362
  80                        42.50       0.00       0.85      11.21      28.54       0.00      28.54       17.87     1.81   0.672
  81                        42.50       0.00       0.86      10.72      28.96       0.00      28.96       12.62     1.28   0.681
  82                        42.50       0.00       0.82      12.07      27.75       0.00      27.75       25.44     2.57   0.653
  83                        42.50       0.00       1.03       4.46      34.88       0.00      34.88        4.26     0.43   0.821
  84                        42.50       0.00       0.97       6.60      32.84       0.00      32.84        3.92     0.40   0.773
  85                        42.50       0.00       1.14       0.32      38.68       0.00      38.68        3.60     0.36   0.910
  86                        42.50       0.00       1.05       3.59      35.62       0.00      35.62        5.25     0.53   0.838
  87                        42.50       0.00       1.13       0.91      37.96       0.00      37.96        4.99     0.51   0.893
  88                        42.50       0.00       1.01       5.30      34.12       0.00      34.12        3.27     0.33   0.803
  89                        42.50       0.00       1.06       3.42      35.82       0.00      35.82        6.90     0.70   0.843
  90                        42.50       0.00       1.15       0.01      39.05       0.00      39.05        0.45     0.05   0.919
  91                        42.50       0.00       0.96       7.12      32.10       0.00      32.10        7.00     0.71   0.755
  92                        42.50       0.00       1.06       3.31      35.88       0.00      35.88        4.48     0.45   0.844
  93                        42.50       0.00       0.87      10.56      29.23       0.00      29.23       14.96     1.51   0.688
  94                        42.50       0.00       0.78      13.77      26.56       0.00      26.56        1.86     0.19   0.625
  95                        42.50       0.00       1.15       0.05      38.92       0.00      38.92        0.85     0.09   0.916
  96                        42.50       0.00       0.93       8.23      31.46       0.00      31.46        3.84     0.39   0.740
  97                        42.50       0.00       1.13       0.90      38.09       0.00      38.09        3.78     0.38   0.896
  98                        42.50       0.00       0.93       8.03      31.67       0.00      31.67        3.90     0.39   0.745
  99                        42.50       0.00       0.46      25.43      15.85       0.00      15.85        5.88     0.59   0.373
  100                       42.50       0.00       0.51      23.52      17.61       0.00      17.61        4.52     0.45   0.414
  101                       42.50       0.00       0.53      23.05      17.98       0.00      17.98        8.81     0.88   0.423
  102                       42.50       0.00       0.86      10.81      29.06       0.00      29.06        7.09     0.71   0.684
  103                       42.50       0.00       0.29      31.91       9.89       0.00       9.89        3.60     0.36   0.233
  104                       42.50       0.00       0.19      35.33       6.69       0.00       6.69        6.48     0.64   0.157
  105                       42.50       0.00       0.95       7.55      32.11       0.00      32.11        4.20     0.42   0.755
  106                       42.50       0.00       0.51      23.57      17.53       0.00      17.53        4.28     0.43   0.412
  
  
  ******************
  Node Depth Summary
  ******************
  
  ---------------------------------------------------------------------------------
                                 Average  Maximum  Maximum  Time of Max    Reported
                                   Depth    Depth      HGL   Occurrence   Max Depth
  Node                 Type       Meters   Meters   Meters  days hr:min      Meters
  ---------------------------------------------------------------------------------
  jd1                  JUNCTION     0.14     0.22   273.22     0  07:00        0.22
  jd2                  JUNCTION     1.26     3.00   270.00     0  06:22        3.00
  jd3                  JUNCTION     2.62     3.00   266.00     0  03:33        3.00
  jd4                  JUNCTION     1.76     3.00   270.00     0  06:10        3.00
  jd5                  JUNCTION     0.10     0.16   274.16     0  07:00        0.16
  jd6                  JUNCTION     0.12     0.20   275.20     0  07:00        0.20
  jd7                  JUNCTION     0.35     0.54   264.64     0  07:00        0.54
  jd8                  JUNCTION     2.01     3.00   267.00     0  06:05        3.00
  jd9                  JUNCTION     1.82     3.00   268.00     0  06:05        3.00
  jd10                 JUNCTION     2.64     3.00   273.00     0  03:25        3.00
  jd11                 JUNCTION     0.11     0.18   282.18     0  07:00        0.18
  jd12                 JUNCTION     2.67     3.00   272.00     0  03:13        3.00
  jd13                 JUNCTION     0.13     0.22   289.22     0  07:00        0.22
  jd14                 JUNCTION     1.13     3.00   283.00     0  06:22        3.00
  jd15                 JUNCTION     0.33     0.59   278.59     0  07:00        0.59
  jd16                 JUNCTION     0.35     0.61   274.61     0  07:00        0.61
  jd17                 JUNCTION     2.13     3.00   278.80     0  05:18        3.00
  jd18                 JUNCTION     1.20     3.00   282.00     0  06:27        3.00
  jd19                 JUNCTION     1.74     3.00   270.00     0  06:07        3.00
  jd20                 JUNCTION     0.22     0.34   273.34     0  07:00        0.34
  jd21                 JUNCTION     2.60     3.00   273.00     0  04:11        3.00
  jd22                 JUNCTION     1.99     3.00   275.00     0  06:08        3.00
  jd23                 JUNCTION     0.32     0.63   278.63     0  07:01        0.63
  jd24                 JUNCTION     0.15     0.26   285.26     0  07:00        0.26
  jd25                 JUNCTION     0.28     0.49   279.49     0  07:00        0.49
  jd26                 JUNCTION     1.19     3.00   288.00     0  06:21        3.00
  jd27                 JUNCTION     0.25     0.44   291.44     0  07:00        0.44
  jd28                 JUNCTION     2.71     3.00   290.00     0  02:59        3.00
  jd29                 JUNCTION     0.11     0.18   299.18     0  07:00        0.18
  jd30                 JUNCTION     0.15     0.25   290.25     0  07:01        0.25
  jd31                 JUNCTION     1.10     1.65   273.65     0  07:00        1.65
  jd32                 JUNCTION     2.70     3.00   275.00     0  03:05        3.00
  jd33                 JUNCTION     0.22     0.37   289.37     0  07:00        0.37
  jd34                 JUNCTION     0.28     0.52   294.52     0  07:00        0.52
  jd35                 JUNCTION     2.75     3.00   292.00     0  02:43        3.00
  jd36                 JUNCTION     1.49     3.00   302.00     0  06:17        3.00
  jd37                 JUNCTION     1.37     3.00   306.00     0  06:16        3.00
  jd38                 JUNCTION     0.49     0.90   297.90     0  07:02        0.90
  jd39                 JUNCTION     2.63     3.00   297.00     0  03:32        3.00
  jd40                 JUNCTION     1.73     3.00   302.00     0  06:13        3.00
  jd41                 JUNCTION     2.45     3.00   296.00     0  04:50        3.00
  jd42                 JUNCTION     0.22     0.38   305.38     0  07:01        0.38
  jd43                 JUNCTION     1.71     3.00   300.00     0  06:11        3.00
  jd44                 JUNCTION     1.71     3.00   286.00     0  06:14        3.00
  jd45                 JUNCTION     2.68     3.00   282.00     0  03:15        3.00
  jd46                 JUNCTION     0.33     0.60   275.60     0  07:24        0.60
  jd47                 JUNCTION     0.17     0.28   315.28     0  07:00        0.28
  jd48                 JUNCTION     0.12     0.20   325.20     0  07:00        0.20
  jd49                 JUNCTION     0.30     0.51   289.51     0  07:00        0.51
  jd50                 JUNCTION     2.73     3.00   278.00     0  02:54        3.00
  jd51                 JUNCTION     2.35     3.00   313.00     0  05:19        3.00
  jd52                 JUNCTION     1.04     3.00   326.00     0  06:22        2.02
  jd53                 JUNCTION     1.45     3.00   325.00     0  06:20        3.00
  jd54                 JUNCTION     0.32     0.54   326.54     0  07:00        0.54
  jd55                 JUNCTION     1.93     3.00   325.00     0  06:07        3.00
  jd56                 JUNCTION     0.22     0.38   327.38     0  07:00        0.38
  jd59                 JUNCTION     2.27     3.00   320.80     0  05:32        3.00
  jd60                 JUNCTION     2.68     3.00   319.00     0  03:11        3.00
  jd61                 JUNCTION     0.16     0.27   329.27     0  07:00        0.27
  jd62                 JUNCTION     0.07     0.12   335.12     0  07:00        0.12
  jd63                 JUNCTION     0.08     0.13   324.13     0  07:00        0.13
  jd64                 JUNCTION     2.13     3.00   321.00     0  05:32        2.89
  jd65                 JUNCTION     1.89     3.00   307.00     0  06:03        3.00
  jd66                 JUNCTION     2.62     3.00   304.00     0  03:32        3.00
  jd69                 JUNCTION     0.26     0.45   333.45     0  07:00        0.45
  jd79                 JUNCTION     2.61     3.00   274.00     0  03:03        3.00
  jd80                 JUNCTION     2.17     3.00   279.00     0  05:18        3.00
  jd81                 JUNCTION     0.17     0.28   288.28     0  07:00        0.28
  jd83                 JUNCTION     2.76     3.00   323.00     0  02:42        3.00
  jd84                 JUNCTION     0.83     3.00   326.00     0  06:22        2.47
  jd85                 JUNCTION     2.63     3.00   324.00     0  03:29        3.00
  jd87                 JUNCTION     2.66     3.00   322.00     0  03:19        3.00
  jd89                 JUNCTION     0.18     0.30   324.30     0  07:00        0.30
  jd90                 JUNCTION     0.16     0.26   328.26     0  07:00        0.26
  jd92                 JUNCTION     0.16     0.27   326.27     0  07:00        0.27
  jd93                 JUNCTION     1.43     3.00   327.00     0  06:18        3.00
  jd94                 JUNCTION     0.76     3.00   329.20     0  06:27        1.91
  jd95                 JUNCTION     0.82     2.81   329.81     0  06:28        2.12
  jd96                 JUNCTION     2.67     3.00   308.00     0  03:17        3.00
  jd97                 JUNCTION     0.84     3.00   330.20     0  06:28        2.20
  jd98                 JUNCTION     0.22     0.37   329.37     0  07:00        0.37
  jd99                 JUNCTION     2.61     3.00   327.00     0  03:33        3.00
  jd101                JUNCTION     0.12     0.20   321.20     0  07:00        0.20
  jd102                JUNCTION     0.28     0.49   324.49     0  07:00        0.49
  jd103                JUNCTION     0.13     0.21   318.21     0  07:00        0.21
  jd106                JUNCTION     2.48     3.00   287.00     0  04:18        3.00
  jd107                JUNCTION     0.24     0.39   332.39     0  07:00        0.39
  jd108                JUNCTION     1.17     1.48   327.48     0  06:30        1.48
  jd109                JUNCTION     0.19     0.31   343.31     0  07:00        0.31
  jd110                JUNCTION     2.63     3.00   327.00     0  03:33        3.00
  jd111                JUNCTION     0.08     0.13   344.13     0  07:00        0.13
  jd112                JUNCTION     0.10     0.17   334.17     0  07:00        0.17
  jd113                JUNCTION     0.11     0.19   348.19     0  07:00        0.19
  jd114                JUNCTION     2.67     3.00   317.00     0  03:13        3.00
  jd117                JUNCTION     1.55     2.68   318.68     0  07:00        2.68
  jd118                JUNCTION     0.10     0.17   330.17     0  07:00        0.17
  jd120                JUNCTION     0.18     0.32   327.32     0  07:00        0.32
  jd121                JUNCTION     0.18     0.31   320.31     0  07:00        0.31
  jd122                JUNCTION     2.62     3.00   276.00     0  03:35        3.00
  jd123                JUNCTION     2.61     3.00   276.20     0  03:35        3.00
  jd124                JUNCTION     2.79     3.00   271.00     0  02:28        3.00
  jd125                JUNCTION     1.77     3.00   278.00     0  06:10        3.00
  jd126                JUNCTION     2.76     3.00   275.00     0  02:42        3.00
  jd135                JUNCTION     0.15     0.26   289.26     0  07:00        0.26
  jd136                JUNCTION     0.30     0.51   341.51     0  07:00        0.51
  psk1                 OUTFALL      0.10     0.17   279.17     0  07:00        0.17
  psk2                 OUTFALL      0.15     0.25   270.25     0  07:01        0.25
  psk3                 OUTFALL      0.35     0.61   271.61     0  07:00        0.61
  psk4                 OUTFALL      0.00     0.00   280.00     0  00:00        0.00
  psk5                 OUTFALL      0.14     0.22   263.22     0  07:00        0.22
  psk6                 OUTFALL      0.09     0.15   259.15     0  07:00        0.15
  psk7                 OUTFALL      0.35     0.54   262.54     0  07:00        0.54
  psk8                 OUTFALL      0.00     0.00   317.00     0  00:00        0.00
  
  
  *******************
  Node Inflow Summary
  *******************
  
  -------------------------------------------------------------------------------------------------
                                  Maximum  Maximum                  Lateral       Total        Flow
                                  Lateral    Total  Time of Max      Inflow      Inflow     Balance
                                   Inflow   Inflow   Occurrence      Volume      Volume       Error
  Node                 Type           CMS      CMS  days hr:min    10^6 ltr    10^6 ltr     Percent
  -------------------------------------------------------------------------------------------------
  jd1                  JUNCTION     0.684    1.030     0  07:00        6.82        10.6       0.144
  jd2                  JUNCTION     1.057    1.418     0  07:00        10.4        14.2       0.254
  jd3                  JUNCTION     1.270    2.988     0  07:00        12.6        33.3       1.211
  jd4                  JUNCTION     1.527    1.700     0  07:00        15.1        16.8       0.311
  jd5                  JUNCTION     0.448    0.742     0  07:00        4.43        7.48       0.043
  jd6                  JUNCTION     0.517    0.517     0  07:00        5.11        5.11       0.070
  jd7                  JUNCTION     0.261    2.349     0  07:00         2.6        28.5       0.189
  jd8                  JUNCTION     0.363    1.309     0  07:00         3.6          18       1.134
  jd9                  JUNCTION     0.279    1.346     0  07:00        2.77        18.1       0.257
  jd10                 JUNCTION     0.742    0.940     0  07:00        7.34        9.31       1.091
  jd11                 JUNCTION     1.095    1.095     0  07:00        10.8        10.8       0.078
  jd12                 JUNCTION     0.825    1.809     0  07:00        8.14        17.8       0.777
  jd13                 JUNCTION     1.494    1.494     0  07:00        14.8        14.8       0.078
  jd14                 JUNCTION     1.750    1.977     0  07:00        17.3        19.5       0.155
  jd15                 JUNCTION     0.722    1.717     0  07:00        7.14        16.6       0.419
  jd16                 JUNCTION     0.776    3.217     0  07:00        7.69          31       0.158
  jd17                 JUNCTION     1.622    3.477     0  07:00          16        37.8       1.997
  jd18                 JUNCTION     1.286    1.877     0  07:00        12.7        18.5       0.210
  jd19                 JUNCTION     1.194    2.143     0  07:00        11.8        22.6       0.144
  jd20                 JUNCTION     0.992    1.238     0  07:00        9.81        14.6       0.322
  jd21                 JUNCTION     0.460    2.795     0  07:00        4.54        31.4       1.082
  jd22                 JUNCTION     0.810    1.614     0  06:36           8        16.7       0.501
  jd23                 JUNCTION     0.801    2.384     0  07:00        7.92        22.9       0.115
  jd24                 JUNCTION     1.317    1.317     0  07:00          13          13       0.078
  jd25                 JUNCTION     1.035    1.506     0  07:00        10.2        14.8       0.166
  jd26                 JUNCTION     1.507    2.390     0  07:00        14.9        24.2       0.157
  jd27                 JUNCTION     1.548    2.234     0  07:00        15.3        23.6       0.188
  jd28                 JUNCTION     2.107    2.730     0  07:00        20.8        27.9       0.481
  jd29                 JUNCTION     0.848    0.848     0  07:00        8.38        8.38       0.045
  jd30                 JUNCTION     0.880    2.701     0  07:00        8.68        26.5       0.098
  jd31                 JUNCTION     0.588    1.223     0  07:00        5.81        12.5       3.708
  jd32                 JUNCTION     1.196    4.114     0  07:00        11.8        43.8       0.569
  jd33                 JUNCTION     1.178    2.062     0  07:00        11.7          20       0.077
  jd34                 JUNCTION     1.458    1.458     0  07:00        14.5        14.5       0.059
  jd35                 JUNCTION     1.330    3.338     0  07:00        13.2        37.7       0.348
  jd36                 JUNCTION     2.249    3.226     0  07:00        22.2        33.6       0.202
  jd37                 JUNCTION     2.368    2.368     0  07:00        23.4        23.4       0.149
  jd38                 JUNCTION     2.179    3.117     0  07:00        21.6          33       0.287
  jd39                 JUNCTION     1.511    4.149     0  07:00          15        48.6       1.059
  jd40                 JUNCTION     2.570    4.760     0  07:00        25.4          53       0.301
  jd41                 JUNCTION     1.807    5.938     0  07:00        17.9        63.2       3.498
  jd42                 JUNCTION     2.359    2.587     0  07:00        23.3        25.6       0.222
  jd43                 JUNCTION     2.664    4.608     0  07:00        26.5        46.4       0.261
  jd44                 JUNCTION     3.560    6.162     0  07:00        35.2        68.6       0.268
  jd45                 JUNCTION     1.433    3.659     0  07:00        14.2        43.5       0.747
  jd46                 JUNCTION     0.655    0.655     0  07:00        6.48        6.48       0.826
  jd47                 JUNCTION     2.127    2.127     0  07:00        21.1        21.1       0.107
  jd48                 JUNCTION     0.589    0.589     0  07:00         5.9         5.9       0.041
  jd49                 JUNCTION     2.879    2.879     0  07:00        28.4        28.4       0.179
  jd50                 JUNCTION     2.993    6.190     0  07:00        29.6        69.7       0.622
  jd51                 JUNCTION     0.627    2.884     0  07:00        6.22        28.6       5.021
  jd52                 JUNCTION     1.276    4.443     0  06:22        12.6        33.8       0.326
  jd53                 JUNCTION     0.708    2.846     0  06:20        6.99        30.6       0.104
  jd54                 JUNCTION     0.382    1.901     0  07:00        3.78        18.9       0.150
  jd55                 JUNCTION     0.697    2.679     0  07:00        6.89          25       3.174
  jd56                 JUNCTION     0.423    1.239     0  07:00         4.2        12.3       0.111
  jd59                 JUNCTION     0.420    2.084     0  07:00        4.16        20.2       3.970
  jd60                 JUNCTION     0.752    1.596     0  07:00        7.44        15.9       0.814
  jd61                 JUNCTION     0.844    0.949     0  07:00         8.4        9.45       0.096
  jd62                 JUNCTION     0.340    0.340     0  07:00        3.41        3.41       0.010
  jd63                 JUNCTION     0.467    0.467     0  07:00        4.62        4.62       0.055
  jd64                 JUNCTION     0.393    0.970     0  07:00        3.88         9.6       4.047
  jd65                 JUNCTION     6.668    6.668     0  07:00          66          66       0.132
  jd66                 JUNCTION     0.881    2.556     0  07:00         8.8        25.5       1.248
  jd69                 JUNCTION     1.630    1.675     0  07:00        16.3        16.8       0.102
  jd79                 JUNCTION     1.586    2.502     0  07:00        15.7        26.4       0.667
  jd80                 JUNCTION     1.761    2.369     0  07:00        17.4        23.4       0.621
  jd81                 JUNCTION     1.337    1.337     0  07:00        13.2        13.2       0.036
  jd83                 JUNCTION     1.395    1.920     0  07:00        13.9        18.5       0.461
  jd84                 JUNCTION     1.773    1.773     0  07:00        17.7        17.7       0.066
  jd85                 JUNCTION     0.403    0.660     0  07:00           4        6.57       1.303
  jd87                 JUNCTION     0.330    0.796     0  07:00        3.27        7.91       0.938
  jd89                 JUNCTION     0.385    0.385     0  07:00         3.8         3.8       0.142
  jd90                 JUNCTION     0.392    0.392     0  07:00        3.88        3.88       0.078
  jd92                 JUNCTION     0.330    0.330     0  07:00        3.27        3.27       0.058
  jd93                 JUNCTION     0.709    1.534     0  07:00        7.01        15.2       0.185
  jd94                 JUNCTION     0.045    0.825     0  07:00       0.448        8.17       0.113
  jd95                 JUNCTION     0.086    0.780     0  07:00       0.849        7.73       0.212
  jd96                 JUNCTION     0.643    0.858     0  07:00        6.48         8.6       1.125
  jd97                 JUNCTION     0.694    0.694     0  07:00        6.89        6.89       0.044
  jd98                 JUNCTION     0.388    0.388     0  07:00        3.84        3.84       0.058
  jd99                 JUNCTION     0.186    0.452     0  07:00        1.86        5.01       1.138
  jd101                JUNCTION     0.508    1.013     0  07:00        5.04          10       0.069
  jd102                JUNCTION     0.506    0.506     0  07:00        4.99        4.99       0.116
  jd103                JUNCTION     0.348    0.348     0  07:00        3.45        3.45       0.031
  jd106                JUNCTION     0.273    1.620     0  07:00        2.71          16       2.472
  jd107                JUNCTION     0.393    1.293     0  07:00         3.9        12.8       0.133
  jd108                JUNCTION     0.428    0.428     0  07:00        4.28         4.3       1.533
  jd109                JUNCTION     0.715    0.715     0  07:00        7.08        7.08       0.030
  jd110                JUNCTION     0.543    0.809     0  07:00        5.49        8.16       1.888
  jd111                JUNCTION     0.451    0.451     0  07:00        4.52        4.52       0.040
  jd112                JUNCTION     0.530    1.474     0  07:00        5.24        14.7       0.044
  jd113                JUNCTION     0.357    0.357     0  07:00         3.6         3.6      -0.016
  jd114                JUNCTION     0.430    4.030     0  07:00        4.26        45.9       0.690
  jd117                JUNCTION     0.396    1.298     0  07:00        3.92          13       1.234
  jd118                JUNCTION     0.363    0.363     0  07:00         3.6         3.6       0.009
  jd120                JUNCTION     0.453    0.453     0  07:00        4.48        4.48       0.058
  jd121                JUNCTION     0.560    0.560     0  07:00        5.56        5.56       0.089
  jd122                JUNCTION     1.329    4.837     0  07:00        13.1        52.4       1.081
  jd123                JUNCTION     1.367    3.691     0  07:00        13.5        44.7       1.591
  jd124                JUNCTION     1.969    3.043     0  07:00        19.4        35.9       0.162
  jd125                JUNCTION     1.911    3.586     0  07:00        18.9          43       0.152
  jd126                JUNCTION     2.771    3.633     0  07:00        27.4        36.9       0.276
  jd135                JUNCTION     0.708    0.708     0  07:00           7           7       0.041
  jd136                JUNCTION     0.587    0.944     0  07:00        5.88        9.47       0.097
  psk1                 OUTFALL      0.000    0.711     0  07:00           0        7.05       0.000
  psk2                 OUTFALL      0.000    2.047     0  07:01           0        19.9       0.000
  psk3                 OUTFALL      0.000    3.215     0  07:00           0        30.9       0.000
  psk4                 OUTFALL      0.000    0.000     0  00:00           0           0       0.000 ltr
  psk5                 OUTFALL      0.000    0.669     0  07:00           0         6.9       0.000
  psk6                 OUTFALL      0.000    0.569     0  07:00           0        5.74       0.000
  psk7                 OUTFALL      0.000    2.349     0  07:00           0        28.4       0.000
  psk8                 OUTFALL      0.000    0.000     0  00:00           0           0       0.000 ltr
  
  
  **********************
  Node Surcharge Summary
  **********************
  
  Surcharging occurs when water rises above the top of the highest conduit.
  ---------------------------------------------------------------------
                                               Max. Height   Min. Depth
                                   Hours       Above Crown    Below Rim
  Node                 Type      Surcharged         Meters       Meters
  ---------------------------------------------------------------------
  jd2                  JUNCTION        2.16          2.200        0.000
  jd3                  JUNCTION        6.45          2.200        0.000
  jd4                  JUNCTION        3.13          2.200        0.000
  jd8                  JUNCTION        4.39          2.200        0.000
  jd9                  JUNCTION        3.26          2.200        0.000
  jd10                 JUNCTION        6.58          2.400        0.000
  jd12                 JUNCTION        6.79          2.400        0.000
  jd14                 JUNCTION        1.80          2.400        0.000
  jd17                 JUNCTION        4.52          2.200        0.000
  jd18                 JUNCTION        1.82          2.000        0.000
  jd19                 JUNCTION        3.02          2.200        0.000
  jd21                 JUNCTION        6.54          2.200        0.000
  jd22                 JUNCTION        5.95          2.400        0.000
  jd26                 JUNCTION        1.87          2.400        0.000
  jd28                 JUNCTION        7.02          2.400        0.000
  jd31                 JUNCTION        5.81          0.853        1.347
  jd32                 JUNCTION        6.92          2.200        0.000
  jd35                 JUNCTION        7.28          2.400        0.000
  jd36                 JUNCTION        2.75          2.400        0.000
  jd37                 JUNCTION        2.34          2.400        0.000
  jd39                 JUNCTION        6.47          2.000        0.000
  jd40                 JUNCTION        2.99          2.200        0.000
  jd41                 JUNCTION        5.17          1.000        0.000
  jd43                 JUNCTION        2.90          2.200        0.000
  jd44                 JUNCTION        2.92          2.000        0.000
  jd45                 JUNCTION        6.75          2.000        0.000
  jd50                 JUNCTION        7.09          2.200        0.000
  jd51                 JUNCTION        4.69          1.350        0.000
  jd52                 JUNCTION        2.21          1.500        0.000
  jd53                 JUNCTION        2.68          1.800        0.000
  jd55                 JUNCTION        3.08          1.500        0.000
  jd59                 JUNCTION        4.47          1.500        0.000
  jd60                 JUNCTION        6.81          2.400        0.000
  jd64                 JUNCTION        4.52          1.800        0.000
  jd65                 JUNCTION        3.41          2.400        0.000
  jd66                 JUNCTION        6.46          2.200        0.000
  jd79                 JUNCTION        6.94          2.400        0.000
  jd80                 JUNCTION        4.85          2.400        0.000
  jd83                 JUNCTION        7.31          2.400        0.000
  jd84                 JUNCTION        1.69          2.400        0.000
  jd85                 JUNCTION        6.52          2.400        0.000
  jd87                 JUNCTION        6.69          2.400        0.000
  jd93                 JUNCTION        2.71          2.200        0.000
  jd94                 JUNCTION        1.85          2.200        0.000
  jd95                 JUNCTION        1.67          2.014        0.186
  jd96                 JUNCTION        6.72          2.200        0.000
  jd97                 JUNCTION        1.64          2.200        0.000
  jd99                 JUNCTION        6.45          2.400        0.000
  jd106                JUNCTION        5.70          2.000        0.000
  jd108                JUNCTION        6.72          0.478        1.522
  jd110                JUNCTION        6.46          2.000        0.000
  jd114                JUNCTION        6.78          2.000        0.000
  jd117                JUNCTION        6.47          1.884        0.316
  jd122                JUNCTION        6.52          2.200        0.000
  jd123                JUNCTION        6.41          2.200        0.000
  jd124                JUNCTION        7.53          2.400        0.000
  jd125                JUNCTION        3.19          2.200        0.000
  jd126                JUNCTION        7.30          2.400        0.000
  
  
  *********************
  Node Flooding Summary
  *********************
  
  Flooding refers to all water that overflows a node, whether it ponds or not.
  --------------------------------------------------------------------------
                                                             Total   Maximum
                                 Maximum   Time of Max       Flood    Ponded
                        Hours       Rate    Occurrence      Volume     Depth
  Node                 Flooded       CMS   days hr:min    10^6 ltr    Meters
  --------------------------------------------------------------------------
  jd2                     1.68     0.285      0  06:22       1.008     0.000
  jd3                     6.44     2.988      0  07:00      32.925     0.000
  jd4                     2.98     1.190      0  07:00       9.115     0.000
  jd8                     2.96     0.223      0  06:50       1.809     0.000
  jd9                     2.95     0.400      0  07:00       3.667     0.000
  jd10                    6.58     0.940      0  07:00       9.214     0.000
  jd12                    6.78     1.809      0  07:00      17.650     0.000
  jd14                    1.52     0.222      0  06:22       0.407     0.000
  jd17                    3.28     2.648      0  07:00      22.474     0.000
  jd18                    1.61     0.601      0  06:27       1.761     0.000
  jd19                    2.89     1.076      0  07:00       7.268     0.000
  jd21                    5.81     2.795      0  07:00      30.733     0.000
  jd22                    2.90     0.790      0  06:36       5.519     0.000
  jd26                    1.75     0.494      0  07:00       2.599     0.000
  jd28                    7.02     2.730      0  07:00      27.762     0.000
  jd32                    6.91     4.114      0  07:00      43.539     0.000
  jd35                    7.27     3.338      0  07:00      37.579     0.000
  jd36                    2.12     1.106      0  07:00       6.730     0.000
  jd37                    2.01     0.891      0  07:00       5.174     0.000
  jd39                    6.46     4.149      0  07:00      48.099     0.000
  jd40                    2.93     2.198      0  07:00      17.716     0.000
  jd41                    5.16     5.938      0  07:00      61.058     0.000
  jd43                    2.88     2.776      0  07:00      20.492     0.000
  jd44                    2.78     2.262      0  07:00      15.012     0.000
  jd45                    6.74     3.659      0  07:00      43.157     0.000
  jd50                    7.09     6.190      0  07:00      69.312     0.000
  jd51                    4.68     2.884      0  07:00      27.226     0.000
  jd52                    0.01     2.108      0  06:22       0.044     0.000
  jd53                    1.71     0.775      0  06:20       1.792     0.000
  jd55                    2.12     2.679      0  07:00      16.444     0.000
  jd59                    4.46     2.084      0  07:00      19.464     0.000
  jd60                    6.81     1.596      0  07:00      15.735     0.000
  jd64                    0.01     0.055      0  05:32       0.000     0.000
  jd65                    3.37     5.575      0  07:00      46.532     0.000
  jd66                    6.46     2.556      0  07:00      25.234     0.000
  jd79                    4.44     2.256      0  07:00      21.454     0.000
  jd80                    3.96     2.211      0  07:00      19.320     0.000
  jd83                    7.30     1.920      0  07:00      18.461     0.000
  jd84                    0.01     0.173      0  06:22       0.002     0.000
  jd85                    6.51     0.660      0  07:00       6.487     0.000
  jd87                    6.68     0.796      0  07:00       7.833     0.000
  jd93                    1.64     0.343      0  07:00       1.726     0.000
  jd94                    0.01     0.252      0  06:27       0.002     0.000
  jd96                    6.72     0.858      0  07:00       8.503     0.000
  jd97                    0.01     0.202      0  06:28       0.003     0.000
  jd99                    6.44     0.452      0  07:00       4.954     0.000
  jd106                   5.69     1.620      0  07:00      15.604     0.000
  jd110                   6.45     0.809      0  07:00       8.009     0.000
  jd114                   6.47     4.030      0  07:00      45.470     0.000
  jd122                   6.41     4.837      0  07:00      51.734     0.000
  jd123                   6.02     3.376      0  07:00      36.815     0.000
  jd124                   7.53     3.042      0  07:00      35.830     0.000
  jd125                   2.89     1.200      0  07:00       8.712     0.000
  jd126                   7.30     3.633      0  07:00      36.846     0.000
  
  
  ***********************
  Outfall Loading Summary
  ***********************
  
  -----------------------------------------------------------
                         Flow       Avg       Max       Total
                         Freq      Flow      Flow      Volume
  Outfall Node           Pcnt       CMS       CMS    10^6 ltr
  -----------------------------------------------------------
  psk1                  96.96     0.355     0.711       7.048
  psk2                  96.84     1.015     2.047      19.888
  psk3                  97.08     1.573     3.215      30.948
  psk4                   0.00     0.000     0.000       0.000
  psk5                  96.96     0.346     0.669       6.903
  psk6                  96.82     0.289     0.569       5.735
  psk7                  97.05     1.362     2.349      28.424
  psk8                   0.00     0.000     0.000       0.000
  -----------------------------------------------------------
  System                72.71     4.941     0.000      98.946
  
  
  ********************
  Link Flow Summary
  ********************
  
  -----------------------------------------------------------------------------
                                 Maximum  Time of Max   Maximum    Max/    Max/
                                  |Flow|   Occurrence   |Veloc|    Full    Full
  Link                 Type          CMS  days hr:min     m/sec    Flow   Depth
  -----------------------------------------------------------------------------
  GQ1                  CONDUIT     0.356     0  06:36      1.94    0.93    0.67
  GQ2                  CONDUIT     1.369     0  07:00      2.78    0.65    0.60
  GQ3                  CONDUIT     0.711     0  07:00      6.45    0.03    0.11
  GQ4                  CONDUIT     0.510     0  06:38      1.80    1.00    1.00
  GQ5                  CONDUIT     1.208     0  06:46      2.40    1.00    1.00
  GQ6                  CONDUIT     0.361     0  07:00      1.20    0.16    0.64
  GQ7                  CONDUIT     1.675     0  08:31      3.50    1.00    1.00
  GQ8                  CONDUIT     0.771     0  07:01      1.75    0.74    0.82
  GQ9                  CONDUIT     2.105     0  07:00      4.77    0.74    0.82
  GQ10                 CONDUIT     1.134     0  09:29      4.11    1.04    1.00
  GQ11                 CONDUIT     0.228     0  07:00      1.88    0.24    0.48
  GQ12                 CONDUIT     0.273     0  07:00      1.32    0.30    0.69
  GQ13                 CONDUIT     0.173     0  07:00      0.55    0.08    0.60
  GQ14                 CONDUIT     0.089     0  07:00      1.08    0.13    0.22
  GQ15                 CONDUIT     0.206     0  07:00      4.37    0.83    0.63
  GQ16                 CONDUIT     1.823     0  07:03      4.05    0.88    0.57
  GQ17                 CONDUIT     0.427     0  07:00      1.90    0.13    0.46
  GQ18                 CONDUIT     1.086     0  07:00      2.50    4.89    0.83
  GQ19                 CONDUIT     0.575     0  07:00      2.29    0.07    0.36
  GQ20                 CONDUIT     0.126     0  07:00      0.49    0.07    0.59
  GQ21                 CONDUIT     0.465     0  07:00      1.51    0.14    0.63
  GQ22                 CONDUIT     0.471     0  07:00      1.79    0.14    0.37
  GQ23                 CONDUIT     0.979     0  07:00      2.29    0.48    0.56
  GQ24                 CONDUIT     1.606     0  07:01      3.38    0.79    0.90
  GQ25                 CONDUIT     0.884     0  07:00      3.92    0.99    0.75
  GQ26                 CONDUIT     0.604     0  07:00      2.71    0.71    0.81
  GQ27                 CONDUIT     0.832     0  06:34      3.00    0.83    1.00
  GQ28                 CONDUIT     0.288     0  07:00      0.75    0.31    0.72
  GQ29                 CONDUIT     1.223     0  07:00      2.43    0.57    1.00
  GQ30                 CONDUIT     0.824     0  06:39      2.91    1.00    1.00
  GQ31                 CONDUIT     0.574     0  07:00      2.09    0.77    0.94
  GQ32                 CONDUIT     0.686     0  07:00      2.97    1.10    0.86
  GQ33                 CONDUIT     1.434     0  06:51      5.07    1.00    1.00
  GQ34                 CONDUIT     0.437     0  07:01      1.77    0.69    0.82
  GQ35                 CONDUIT     0.704     0  06:17      2.50    1.30    1.00
  GQ36                 CONDUIT     0.954     0  06:17      3.37    1.18    1.00
  GQ37                 CONDUIT     0.431     0  07:00      1.66    0.62    0.86
  GQ38                 CONDUIT     0.193     0  07:02      0.90    0.27    0.71
  GQ39                 CONDUIT     0.782     0  06:37      2.76    1.00    1.00
  GQ40                 CONDUIT     0.592     0  07:00      2.49    0.74    0.86
  GQ41                 CONDUIT     1.280     0  07:02      1.66    0.59    0.95
  GQ42                 CONDUIT     1.359     0  06:57      2.70    1.00    1.00
  GQ43                 CONDUIT     2.309     0  06:17      4.70    1.03    1.00
  GQ44                 CONDUIT     0.946     0  06:37      1.88    1.00    1.00
  GQ45                 CONDUIT     0.949     0  07:00      2.47    0.38    0.72
  GQ46                 CONDUIT     1.068     0  06:31      2.12    1.00    1.00
  GQ47                 CONDUIT     0.197     0  07:00      1.02    0.19    0.65
  GQ48                 CONDUIT     0.196     0  07:00      1.01    0.19    0.65
  GQ49                 CONDUIT     0.788     0  07:00      3.81    0.30    0.69
  GQ50                 CONDUIT     0.227     0  07:00      1.10    0.30    0.69
  GQ51                 CONDUIT     0.995     0  06:54      3.53    1.52    0.99
  GQ52                 CONDUIT     0.646     0  08:02      1.41    0.86    0.88
  GQ53                 CONDUIT     2.225     0  06:45      2.83    1.00    1.00
  GQ54                 CONDUIT     0.483     0  07:00      2.20    0.41    0.72
  GQ55                 CONDUIT     0.361     0  07:00      1.80    0.24    0.67
  GQ56                 CONDUIT     2.002     0  06:12      4.16    1.09    1.00
  GQ57                 CONDUIT     0.696     0  07:01      1.75    0.45    0.74
  GQ58                 CONDUIT     1.450     0  07:01      3.65    0.45    0.74
  GQ59                 CONDUIT     1.203     0  06:43      2.39    1.00    1.00
  GQ60                 CONDUIT     2.230     0  06:22      1.43    0.54    1.00
  GQ61                 CONDUIT     0.310     0  07:00      0.30    0.04    0.57
  GQ62                 CONDUIT     0.647     0  07:00      0.50    0.06    0.59
  GQ63                 CONDUIT     1.480     0  07:00      0.80    0.04    0.57
  GQ64                 CONDUIT     0.105     0  07:00      1.43    0.08    0.32
  GQ65                 CONDUIT     0.045     0  07:00      0.36    0.08    0.47
  GQ66                 CONDUIT     0.185     0  07:00      0.61    0.06    0.58
  GQ67                 CONDUIT     0.970     0  07:00      0.86    0.67    1.00
  GQ68                 CONDUIT     0.973     0  07:00      1.68    0.31    0.69
  GQ69                 CONDUIT     1.675     0  07:00      3.99    0.60    0.78
  GQ70                 CONDUIT     0.569     0  07:00      8.34    0.08    0.19
  GQ71                 CONDUIT     0.669     0  07:00      6.01    0.16    0.27
  GQ72                 CONDUIT     2.349     0  07:00      5.48    0.56    0.54
  GQ73                 CONDUIT     2.047     0  07:01     13.60    0.13    0.25
  GQ74                 CONDUIT     0.378     0  07:00      1.46    0.07    0.40
  GQ75                 CONDUIT     0.461     0  07:01      0.89    0.13    0.62
  GQ76                 CONDUIT     3.215     0  07:00      6.36    0.70    0.61
  GQ77                 CONDUIT     0.000     0  00:00      0.00    0.00    0.29
  GQ78                 CONDUIT     0.916     0  06:43      3.24    1.00    1.00
  GQ79                 CONDUIT     0.246     0  07:00      1.08    0.53    0.79
  GQ80                 CONDUIT     0.608     0  06:46      2.15    1.00    1.00
  GQ81                 CONDUIT     0.304     0  05:29      1.08    1.93    1.00
  GQ82                 CONDUIT     0.643     0  07:00      2.90    0.44    0.73
  GQ83                 CONDUIT     0.694     0  07:00      3.12    0.44    0.73
  GQ84                 CONDUIT     1.304     0  06:20      4.71    1.03    1.00
  GQ85                 CONDUIT     0.525     0  07:00      1.86    0.91    1.00
  GQ86                 CONDUIT     0.189     0  07:00      1.08    0.08    0.60
  GQ87                 CONDUIT     0.067     0  07:00      0.38    0.10    0.61
  GQ88                 CONDUIT     0.466     0  07:00      2.12    0.41    0.72
  GQ89                 CONDUIT     0.384     0  07:00      1.69    0.51    0.75
  GQ90                 CONDUIT     0.392     0  07:00      1.80    0.39    0.72
  GQ91                 CONDUIT     0.330     0  07:00      1.51    0.40    0.72
  GQ92                 CONDUIT     0.780     0  07:00      1.82    1.12    1.00
  GQ93                 CONDUIT     0.826     0  07:00      1.64    0.71    1.00
  GQ94                 CONDUIT     1.199     0  08:04      2.39    1.42    1.00
  GQ95                 CONDUIT     0.215     0  07:00      0.71    0.06    0.58
  GQ96                 CONDUIT     0.694     0  07:00      1.41    1.19    1.00
  GQ97                 CONDUIT     0.388     0  07:00      2.08    0.70    0.63
  GQ98                 CONDUIT     0.265     0  07:00      1.07    0.38    0.82
  GQ99                 CONDUIT     0.703     0  07:00      0.68    0.04    0.57
  GQ100                CONDUIT     0.505     0  07:00      2.99    0.87    0.58
  GQ101                CONDUIT     0.348     0  07:00      1.72    0.26    0.67
  GQ102                CONDUIT     1.458     0  07:00      3.69    0.44    0.73
  GQ103                CONDUIT     0.526     0  07:00      1.95    0.81    0.91
  GQ104                CONDUIT     1.209     0  07:00      4.66    0.88    0.86
  GQ105                CONDUIT     0.315     0  06:58      0.63    1.00    1.00
  GQ106                CONDUIT     0.381     0  07:00      1.76    0.38    0.71
  GQ107                CONDUIT     1.114     0  06:29      3.94    1.00    1.00
  GQ108                CONDUIT     0.829     0  06:41      1.65    1.00    1.00
  GQ109                CONDUIT     0.291     0  07:00      1.46    0.39    0.72
  GQ110                CONDUIT     0.470     0  07:00      0.98    0.07    0.59
  GQ111                CONDUIT     0.416     0  07:00      1.91    0.38    0.72
  GQ112                CONDUIT     1.293     0  07:00      3.19    0.23    0.39
  GQ113                CONDUIT     0.715     0  07:00      4.13    0.54    0.59
  GQ114                CONDUIT     0.428     0  07:00      0.74    0.18    0.69
  GQ115                CONDUIT     0.185     0  07:00      1.03    0.03    0.22
  GQ116                CONDUIT     0.266     0  07:00      0.58    0.04    0.57
  GQ117                CONDUIT     0.944     0  07:00      4.61    0.59    0.43
  GQ118                CONDUIT     0.357     0  07:00      2.11    0.12    0.44
  GQ119                CONDUIT     2.302     0  06:44      4.58    1.00    1.00
  GQ120                CONDUIT     0.000     0  00:00      0.00    0.00    0.50
  GQ121                CONDUIT     1.298     0  07:00      2.58    0.92    1.00
  GQ122                CONDUIT     0.538     0  07:00      1.69    0.10    0.61
  GQ123                CONDUIT     0.363     0  07:00      1.90    0.17    0.64
  GQ124                CONDUIT     0.225     0  07:00      1.08    0.10    0.44
  GQ125                CONDUIT     0.453     0  07:00      1.94    0.51    0.77
  GQ126                CONDUIT     0.559     0  07:00      2.43    0.53    0.76
  GQ127                CONDUIT     0.835     0  06:17      1.73    1.07    1.00
  GQ128                CONDUIT     1.900     0  07:00      2.65    0.41    0.72
  GQ129                CONDUIT     1.313     0  06:38      2.61    1.00    1.00
  GQ130                CONDUIT     1.073     0  06:25      3.79    1.00    1.00
  GQ131                CONDUIT     0.862     0  06:37      3.05    1.00    1.00
  
  
  ***************************
  Flow Classification Summary
  ***************************
  
  -------------------------------------------------------------------------------------
                      Adjusted    ---------- Fraction of Time in Flow Class ---------- 
                       /Actual         Up    Down  Sub   Sup   Up    Down  Norm  Inlet 
  Conduit               Length    Dry  Dry   Dry   Crit  Crit  Crit  Crit  Ltd   Ctrl  
  -------------------------------------------------------------------------------------
  GQ1                     1.00   0.03  0.00  0.00  0.33  0.64  0.00  0.00  0.00  0.00
  GQ2                     1.00   0.03  0.00  0.00  0.06  0.91  0.00  0.00  0.88  0.00
  GQ3                     1.00   0.03  0.00  0.00  0.00  0.97  0.00  0.00  0.14  0.00
  GQ4                     1.00   0.03  0.00  0.00  0.97  0.00  0.00  0.00  0.51  0.00
  GQ5                     1.00   0.03  0.00  0.00  0.97  0.00  0.00  0.00  0.60  0.00
  GQ6                     1.00   0.03  0.00  0.00  0.97  0.00  0.00  0.00  0.90  0.00
  GQ7                     1.00   0.03  0.00  0.00  0.57  0.40  0.00  0.00  0.05  0.00
  GQ8                     1.00   0.03  0.00  0.00  0.97  0.00  0.00  0.00  0.87  0.00
  GQ9                     1.00   0.03  0.00  0.00  0.42  0.56  0.00  0.00  0.90  0.00
  GQ10                    1.00   0.03  0.00  0.00  0.82  0.15  0.00  0.00  0.55  0.00
  GQ11                    1.00   0.03  0.00  0.00  0.10  0.87  0.00  0.00  0.87  0.00
  GQ12                    1.00   0.03  0.00  0.00  0.97  0.00  0.00  0.00  0.90  0.00
  GQ13                    1.00   0.03  0.00  0.00  0.97  0.00  0.00  0.00  0.90  0.00
  GQ14                    1.00   0.03  0.00  0.00  0.97  0.00  0.00  0.00  0.00  0.00
  GQ15                    1.00   0.03  0.00  0.00  0.00  0.97  0.00  0.00  0.01  0.00
  GQ16                    1.00   0.03  0.00  0.00  0.01  0.96  0.00  0.00  0.00  0.00
  GQ17                    1.00   0.03  0.00  0.00  0.52  0.46  0.00  0.00  0.90  0.00
  GQ18                    1.00   0.03  0.00  0.00  0.88  0.09  0.00  0.00  0.14  0.00
  GQ19                    1.00   0.03  0.00  0.00  0.33  0.65  0.00  0.00  0.90  0.00
  GQ20                    1.00   0.03  0.00  0.00  0.97  0.00  0.00  0.00  0.90  0.00
  GQ21                    1.00   0.03  0.00  0.00  0.66  0.31  0.00  0.00  0.90  0.00
  GQ22                    1.00   0.03  0.00  0.00  0.02  0.96  0.00  0.00  0.90  0.00
  GQ23                    1.00   0.03  0.00  0.00  0.02  0.95  0.00  0.00  0.35  0.00
  GQ24                    1.00   0.03  0.00  0.00  0.60  0.37  0.00  0.00  0.70  0.00
  GQ25                    1.00   0.03  0.00  0.00  0.00  0.97  0.00  0.00  0.01  0.00
  GQ26                    1.00   0.03  0.00  0.00  0.00  0.97  0.00  0.00  0.81  0.00
  GQ27                    1.00   0.03  0.00  0.00  0.66  0.31  0.00  0.00  0.61  0.00
  GQ28                    1.00   0.03  0.00  0.00  0.97  0.00  0.00  0.00  0.69  0.00
  GQ29                    1.00   0.03  0.00  0.00  0.97  0.00  0.00  0.00  0.24  0.00
  GQ30                    1.00   0.03  0.00  0.00  0.95  0.02  0.00  0.00  0.23  0.00
  GQ31                    1.00   0.03  0.00  0.00  0.97  0.00  0.00  0.00  0.68  0.00
  GQ32                    1.00   0.03  0.00  0.00  0.01  0.96  0.00  0.00  0.00  0.00
  GQ33                    1.00   0.03  0.00  0.00  0.88  0.10  0.00  0.00  0.60  0.00
  GQ34                    1.00   0.03  0.00  0.00  0.97  0.00  0.00  0.00  0.74  0.00
  GQ35                    1.00   0.03  0.00  0.00  0.55  0.42  0.00  0.00  0.23  0.00
  GQ36                    1.00   0.03  0.00  0.00  0.46  0.51  0.00  0.00  0.57  0.00
  GQ37                    1.00   0.03  0.00  0.00  0.97  0.00  0.00  0.00  0.62  0.00
  GQ38                    1.00   0.03  0.00  0.00  0.97  0.00  0.00  0.00  0.68  0.00
  GQ39                    1.00   0.03  0.00  0.00  0.95  0.02  0.00  0.00  0.60  0.00
  GQ40                    1.00   0.03  0.00  0.00  0.39  0.58  0.00  0.00  0.72  0.00
  GQ41                    1.00   0.03  0.00  0.00  0.97  0.00  0.00  0.00  0.59  0.00
  GQ42                    1.00   0.03  0.00  0.00  0.97  0.00  0.00  0.00  0.57  0.00
  GQ43                    1.00   0.03  0.00  0.00  0.53  0.44  0.00  0.00  0.61  0.00
  GQ44                    1.00   0.03  0.00  0.00  0.97  0.00  0.00  0.00  0.48  0.00
  GQ45                    1.00   0.03  0.00  0.00  0.33  0.64  0.00  0.00  0.90  0.00
  GQ46                    1.00   0.03  0.00  0.00  0.67  0.30  0.00  0.00  0.39  0.00
  GQ47                    1.00   0.03  0.00  0.00  0.97  0.00  0.00  0.00  0.90  0.00
  GQ48                    1.00   0.03  0.00  0.00  0.97  0.00  0.00  0.00  0.90  0.00
  GQ49                    1.00   0.03  0.00  0.00  0.41  0.56  0.00  0.00  0.90  0.00
  GQ50                    1.00   0.03  0.00  0.00  0.97  0.00  0.00  0.00  0.90  0.00
  GQ51                    1.00   0.03  0.00  0.00  0.33  0.64  0.00  0.00  0.43  0.00
  GQ52                    1.00   0.03  0.00  0.00  0.97  0.00  0.00  0.00  0.57  0.00
  GQ53                    1.00   0.03  0.00  0.00  0.97  0.00  0.00  0.00  0.58  0.00
  GQ54                    1.00   0.03  0.00  0.00  0.64  0.33  0.00  0.00  0.90  0.00
  GQ55                    1.00   0.03  0.00  0.00  0.97  0.00  0.00  0.00  0.90  0.00
  GQ56                    1.00   0.03  0.00  0.00  0.54  0.43  0.00  0.00  0.35  0.00
  GQ57                    1.00   0.03  0.00  0.00  0.97  0.00  0.00  0.00  0.90  0.00
  GQ58                    1.00   0.03  0.00  0.00  0.50  0.47  0.00  0.00  0.90  0.00
  GQ59                    1.00   0.03  0.00  0.00  0.97  0.00  0.00  0.00  0.57  0.00
  GQ60                    1.00   0.03  0.00  0.00  0.97  0.00  0.00  0.00  0.34  0.00
  GQ61                    1.00   0.03  0.00  0.00  0.97  0.00  0.00  0.00  0.90  0.00
  GQ62                    1.00   0.03  0.00  0.00  0.97  0.00  0.00  0.00  0.90  0.00
  GQ63                    1.00   0.03  0.00  0.00  0.97  0.00  0.00  0.00  0.90  0.00
  GQ64                    1.00   0.03  0.00  0.00  0.13  0.84  0.00  0.00  0.90  0.00
  GQ65                    1.00   0.03  0.00  0.00  0.97  0.00  0.00  0.00  0.90  0.00
  GQ66                    1.00   0.03  0.00  0.00  0.97  0.00  0.00  0.00  0.90  0.00
  GQ67                    1.00   0.03  0.00  0.00  0.97  0.00  0.00  0.00  0.20  0.00
  GQ68                    1.00   0.03  0.00  0.00  0.97  0.00  0.00  0.00  0.90  0.00
  GQ69                    1.00   0.03  0.00  0.00  0.41  0.56  0.00  0.00  0.90  0.00
  GQ70                    1.00   0.03  0.00  0.00  0.00  0.96  0.00  0.00  0.07  0.00
  GQ71                    1.00   0.03  0.00  0.00  0.00  0.97  0.00  0.00  0.15  0.00
  GQ72                    1.00   0.03  0.00  0.00  0.00  0.97  0.00  0.00  0.16  0.00
  GQ73                    1.00   0.03  0.00  0.00  0.00  0.97  0.00  0.00  0.08  0.00
  GQ74                    1.00   0.03  0.00  0.00  0.91  0.06  0.00  0.00  0.90  0.00
  GQ75                    1.00   0.03  0.00  0.00  0.97  0.00  0.00  0.00  0.90  0.00
  GQ76                    1.00   0.03  0.00  0.00  0.00  0.97  0.00  0.00  0.19  0.00
  GQ77                    1.00   0.03  0.97  0.00  0.00  0.00  0.00  0.00  0.00  0.00
  GQ78                    1.00   0.03  0.00  0.00  0.93  0.04  0.00  0.00  0.59  0.00
  GQ79                    1.00   0.03  0.00  0.00  0.97  0.00  0.00  0.00  0.21  0.00
  GQ80                    1.00   0.03  0.00  0.00  0.97  0.00  0.00  0.00  0.56  0.00
  GQ81                    1.00   0.03  0.00  0.00  0.97  0.00  0.00  0.00  0.01  0.00
  GQ82                    1.00   0.03  0.00  0.00  0.52  0.45  0.00  0.00  0.90  0.00
  GQ83                    1.00   0.03  0.00  0.00  0.00  0.97  0.00  0.00  0.90  0.00
  GQ84                    1.00   0.03  0.00  0.00  0.43  0.54  0.00  0.00  0.71  0.00
  GQ85                    1.00   0.03  0.00  0.00  0.97  0.00  0.00  0.00  0.58  0.00
  GQ86                    1.00   0.03  0.00  0.00  0.97  0.00  0.00  0.00  0.90  0.00
  GQ87                    1.00   0.03  0.00  0.00  0.97  0.00  0.00  0.00  0.90  0.00
  GQ88                    1.00   0.03  0.00  0.00  0.66  0.32  0.00  0.00  0.90  0.00
  GQ89                    1.00   0.03  0.00  0.00  0.97  0.00  0.00  0.00  0.90  0.00
  GQ90                    1.00   0.03  0.00  0.00  0.96  0.01  0.00  0.00  0.90  0.00
  GQ91                    1.00   0.03  0.00  0.00  0.97  0.00  0.00  0.00  0.90  0.00
  GQ92                    1.00   0.03  0.00  0.00  0.90  0.07  0.00  0.00  0.03  0.00
  GQ93                    1.00   0.03  0.00  0.00  0.97  0.00  0.00  0.00  0.67  0.00
  GQ94                    1.00   0.03  0.00  0.00  0.60  0.37  0.00  0.00  0.05  0.00
  GQ95                    1.00   0.03  0.00  0.00  0.97  0.00  0.00  0.00  0.90  0.00
  GQ96                    1.00   0.03  0.00  0.00  0.97  0.00  0.00  0.00  0.27  0.00
  GQ97                    1.00   0.03  0.00  0.00  0.01  0.97  0.00  0.00  0.52  0.00
  GQ98                    1.00   0.03  0.00  0.00  0.97  0.00  0.00  0.00  0.59  0.00
  GQ99                    1.00   0.03  0.00  0.00  0.97  0.00  0.00  0.00  0.90  0.00
  GQ100                   1.00   0.03  0.00  0.00  0.01  0.97  0.00  0.00  0.00  0.00
  GQ101                   1.00   0.03  0.00  0.00  0.96  0.01  0.00  0.00  0.90  0.00
  GQ102                   1.00   0.03  0.00  0.00  0.52  0.45  0.00  0.00  0.90  0.00
  GQ103                   1.00   0.03  0.00  0.00  0.97  0.00  0.00  0.00  0.69  0.00
  GQ104                   1.00   0.03  0.00  0.00  0.40  0.57  0.00  0.00  0.90  0.00
  GQ105                   1.00   0.03  0.00  0.00  0.97  0.00  0.00  0.00  0.18  0.00
  GQ106                   1.00   0.03  0.00  0.00  0.97  0.01  0.00  0.00  0.90  0.00
  GQ107                   1.00   0.03  0.00  0.00  0.74  0.23  0.00  0.00  0.67  0.00
  GQ108                   1.00   0.03  0.00  0.00  0.97  0.00  0.00  0.00  0.26  0.00
  GQ109                   1.00   0.03  0.00  0.00  0.92  0.05  0.00  0.00  0.88  0.00
  GQ110                   1.00   0.03  0.00  0.00  0.97  0.00  0.00  0.00  0.90  0.00
  GQ111                   1.00   0.03  0.00  0.00  0.96  0.01  0.00  0.00  0.74  0.00
  GQ112                   1.00   0.03  0.00  0.00  0.00  0.97  0.00  0.00  0.90  0.00
  GQ113                   1.00   0.03  0.00  0.00  0.00  0.97  0.00  0.00  0.87  0.00
  GQ114                   1.00   0.03  0.00  0.00  0.97  0.00  0.00  0.00  0.23  0.00
  GQ115                   1.00   0.03  0.00  0.00  0.96  0.01  0.00  0.00  0.90  0.00
  GQ116                   1.00   0.03  0.00  0.00  0.97  0.00  0.00  0.00  0.90  0.00
  GQ117                   1.00   0.03  0.00  0.00  0.00  0.97  0.00  0.00  0.00  0.00
  GQ118                   1.00   0.03  0.00  0.00  0.22  0.75  0.00  0.00  0.90  0.00
  GQ119                   1.00   0.03  0.00  0.00  0.93  0.04  0.00  0.00  0.59  0.00
  GQ120                   1.00   0.03  0.11  0.00  0.87  0.00  0.00  0.00  0.00  0.00
  GQ121                   1.00   0.03  0.00  0.00  0.97  0.00  0.00  0.00  0.22  0.00
  GQ122                   1.00   0.03  0.00  0.00  0.89  0.08  0.00  0.00  0.90  0.00
  GQ123                   1.00   0.03  0.00  0.00  0.56  0.41  0.00  0.00  0.90  0.00
  GQ124                   1.00   0.03  0.00  0.00  0.97  0.00  0.00  0.00  0.90  0.00
  GQ125                   1.00   0.03  0.00  0.00  0.97  0.01  0.00  0.00  0.73  0.00
  GQ126                   1.00   0.03  0.00  0.00  0.62  0.35  0.00  0.00  0.90  0.00
  GQ127                   1.00   0.03  0.00  0.00  0.97  0.00  0.00  0.00  0.45  0.00
  GQ128                   1.00   0.03  0.00  0.00  0.55  0.42  0.00  0.00  0.75  0.00
  GQ129                   1.00   0.03  0.00  0.00  0.97  0.00  0.00  0.00  0.53  0.00
  GQ130                   1.00   0.03  0.00  0.00  0.90  0.08  0.00  0.00  0.53  0.00
  GQ131                   1.00   0.03  0.00  0.00  0.82  0.15  0.00  0.00  0.61  0.00
  
  
  *************************
  Conduit Surcharge Summary
  *************************
  
  ----------------------------------------------------------------------------
                                                           Hours        Hours 
                         --------- Hours Full --------   Above Full   Capacity
  Conduit                Both Ends  Upstream  Dnstream   Normal Flow   Limited
  ----------------------------------------------------------------------------
  GQ4                         3.35      3.35      6.67      0.01         0.01
  GQ5                         2.16      2.16      6.45      0.01         0.01
  GQ6                         0.01      0.01      2.16      0.01         0.01
  GQ7                         3.04      3.04      3.19      0.01         0.01
  GQ8                         0.01      0.01      3.04      0.01         0.01
  GQ9                         0.01      0.01      7.09      0.01         0.01
  GQ10                        3.41      3.41      7.22      0.06         0.01
  GQ12                        0.01      0.01      5.70      0.01         0.01
  GQ13                        0.01      0.01      3.13      0.01         0.01
  GQ18                        0.01      0.01      4.39      5.53         0.01
  GQ20                        0.01      0.01      1.82      0.01         0.01
  GQ21                        0.01      0.01      1.82      0.01         0.01
  GQ24                        0.01      0.01      6.92      0.01         0.01
  GQ26                        0.01      0.01      0.70      0.01         0.01
  GQ27                        0.70      0.70      5.95      0.01         0.01
  GQ28                        0.01      0.01      6.54      0.01         0.01
  GQ29                        5.81      5.81      6.54      0.01         0.01
  GQ30                        5.95      5.95      6.74      0.01         0.01
  GQ31                        0.01      0.01      7.28      0.01         0.01
  GQ32                        0.01      2.75      0.01      2.23         0.01
  GQ33                        2.75      2.75      7.28      0.01         0.01
  GQ34                        0.01      0.01      2.75      0.01         0.01
  GQ35                        2.33      2.34      2.75      0.12         0.01
  GQ36                        2.23      2.34      2.23      2.51         2.23
  GQ37                        0.01      0.01      7.02      0.01         0.01
  GQ38                        0.01      0.01      7.02      0.01         0.01
  GQ39                        1.87      1.87      5.70      0.01         0.01
  GQ40                        0.01      0.01      1.87      0.01         0.01
  GQ41                        0.01      0.01      6.47      0.01         0.01
  GQ42                        2.99      2.99      6.64      0.01         0.01
  GQ43                        2.78      2.78      2.99      0.06         0.01
  GQ44                        3.26      3.26      4.39      0.01         0.01
  GQ45                        0.01      0.01      3.02      0.01         0.01
  GQ46                        3.02      3.02      3.26      0.01         0.01
  GQ47                        0.01      0.01      6.58      0.01         0.01
  GQ48                        0.01      0.01      6.79      0.01         0.01
  GQ49                        0.01      0.01      6.79      0.01         0.01
  GQ50                        0.01      0.01      1.80      0.01         0.01
  GQ51                        0.01      1.80      0.01      1.94         0.01
  GQ52                        0.01      0.01      5.81      0.01         0.01
  GQ53                        2.92      2.92      6.75      0.01         0.01
  GQ54                        0.01      0.01      6.81      0.01         0.01
  GQ55                        0.01      0.01      6.81      0.01         0.01
  GQ56                        2.87      2.90      3.04      0.21         0.07
  GQ57                        0.01      0.01      2.90      0.01         0.01
  GQ58                        0.01      0.01      6.21      0.01         0.01
  GQ59                        2.99      2.99      6.21      0.01         0.01
  GQ60                        2.21      2.21      3.08      0.01         0.01
  GQ61                        0.01      0.01      4.47      0.01         0.01
  GQ62                        0.01      0.01      4.69      0.01         0.01
  GQ63                        0.01      0.01      5.17      0.01         0.01
  GQ66                        0.01      0.01      4.97      0.01         0.01
  GQ67                        4.52      4.52      4.68      0.01         0.01
  GQ68                        0.01      0.01      5.75      0.01         0.01
  GQ69                        0.01      0.01      6.46      0.01         0.01
  GQ75                        0.01      0.01      5.70      0.01         0.01
  GQ78                        2.71      2.71      6.94      0.01         0.01
  GQ79                        0.01      0.01      6.94      0.01         0.01
  GQ80                        2.71      2.71      4.85      0.01         0.01
  GQ81                        4.85      4.85      5.70      4.52         1.22
  GQ82                        0.01      0.01      5.70      0.01         0.01
  GQ83                        0.01      0.01      1.37      0.01         0.01
  GQ84                        1.69      1.69      3.04      0.09         0.01
  GQ85                        1.69      1.69      7.31      0.01         0.01
  GQ86                        0.01      0.01      6.52      0.01         0.01
  GQ87                        0.01      0.01      6.52      0.01         0.01
  GQ88                        0.01      0.01      6.69      0.01         0.01
  GQ89                        0.01      0.01      5.94      0.01         0.01
  GQ90                        0.01      0.01      5.49      0.01         0.01
  GQ91                        0.01      0.01      6.20      0.01         0.01
  GQ92                        1.67      1.67      1.85      1.60         1.54
  GQ93                        1.85      1.85      2.71      0.01         0.01
  GQ94                        2.71      2.71      2.78      2.37         2.29
  GQ95                        0.01      0.01      6.72      0.01         0.01
  GQ96                        1.64      1.64      1.67      1.74         1.56
  GQ98                        0.01      0.01      6.45      0.01         0.01
  GQ99                        0.01      0.01      4.81      0.01         0.01
  GQ101                       0.01      0.01      6.18      0.01         0.01
  GQ102                       0.01      0.01      6.52      0.01         0.01
  GQ103                       0.01      0.01      6.82      0.01         0.01
  GQ104                       0.01      0.01      6.82      0.01         0.01
  GQ105                       6.41      6.41      6.52      5.68         0.01
  GQ106                       0.01      0.01      6.54      0.01         0.01
  GQ107                       1.87      1.87      6.54      0.01         0.01
  GQ108                       4.52      4.52      6.41      0.01         0.01
  GQ109                       0.01      0.01      1.87      0.01         0.01
  GQ110                       0.01      0.01      5.70      0.01         0.01
  GQ111                       0.01      0.01      6.19      0.01         0.01
  GQ114                       0.01      0.01      6.72      0.01         0.01
  GQ116                       0.01      0.01      6.46      0.01         0.01
  GQ119                       2.89      2.89      6.91      0.01         0.01
  GQ120                       0.01      0.01      6.77      0.01         0.01
  GQ121                       6.47      6.47      6.91      0.01         0.01
  GQ122                       0.01      0.01      6.47      0.01         0.01
  GQ123                       0.01      0.01      6.53      0.01         0.01
  GQ125                       0.01      0.01      6.20      0.01         0.01
  GQ126                       0.01      0.01      6.18      0.01         0.01
  GQ127                       2.78      2.78      2.89      0.04         0.01
  GQ128                       0.01      0.01      2.68      0.01         0.01
  GQ129                       3.19      3.19      6.92      0.01         0.01
  GQ130                       3.30      3.30      7.53      0.01         0.01
  GQ131                       1.80      1.80      7.30      0.01         0.01
  

  Analysis begun on:  Sat Mar 25 16:19:44 2023
  Analysis ended on:  Sat Mar 25 16:19:47 2023
  Total elapsed time: 00:00:03