
  OWA STORM WATER MANAGEMENT MODEL - VERSION v5.1.14 (OWA 2022-07-31)
  --------------------------------------------------------------

  INP file created by DSDAConvertToSwmmTools 
  version 0.0.1 EcoVista 
  Title/Notes: 
  
  
  *********************************************************
  NOTE: The summary statistics displayed in this report are
  based on results found at every computational time step,  
  not just on results from each reporting time step.
  *********************************************************
  
  ****************
  Analysis Options
  ****************
  Flow Units ............... CMS
  Process Models:
    Rainfall/Runoff ........ YES
    RDII ................... NO
    Snowmelt ............... NO
    Groundwater ............ NO
    Flow Routing ........... YES
    Ponding Allowed ........ NO
    Water Quality .......... NO
  Infiltration Method ...... GREEN_AMPT
  Flow Routing Method ...... DYNWAVE
  Surcharge Method ......... EXTRAN
  Starting Date ............ 07/15/2020 00:00:00
  Ending Date .............. 07/15/2020 17:00:00
  Antecedent Dry Days ...... 0.0
  Report Time Step ......... 00:30:00
  Wet Time Step ............ 00:05:00
  Dry Time Step ............ 01:00:00
  Routing Time Step ........ 30.00 sec
  Variable Time Step ....... YES
  Maximum Trials ........... 8
  Number of Threads ........ 1
  Head Tolerance ........... 0.001500 m
  
  
  **************************        Volume         Depth
  Runoff Quantity Continuity     hectare-m            mm
  **************************     ---------       -------
  Total Precipitation ......       107.503        26.899
  Evaporation Loss .........         6.021         1.506
  Infiltration Loss ........        28.730         7.189
  Surface Runoff ...........        63.386        15.860
  Final Storage ............         9.676         2.421
  Continuity Error (%) .....        -0.288
  
  
  **************************        Volume        Volume
  Flow Routing Continuity        hectare-m      10^6 ltr
  **************************     ---------     ---------
  Dry Weather Inflow .......         0.000         0.000
  Wet Weather Inflow .......        63.080       630.808
  Groundwater Inflow .......         0.000         0.000
  RDII Inflow ..............         0.000         0.000
  External Inflow ..........         0.000         0.000
  External Outflow .........         6.292        62.923
  Flooding Loss ............        54.916       549.167
  Evaporation Loss .........         0.000         0.000
  Exfiltration Loss ........         0.000         0.000
  Initial Stored Volume ....         0.000         0.000
  Final Stored Volume ......         1.666        16.663
  Continuity Error (%) .....         0.326
  
  
  *************************
  Highest Continuity Errors
  *************************
  Node jd51 (8.64%)
  Node jd55 (7.07%)
  Node jd64 (7.01%)
  Node jd59 (7.00%)
  Node jd31 (6.40%)
  
  
  ***************************
  Time-Step Critical Elements
  ***************************
  Link GQ73 (97.19%)
  
  
  ********************************
  Highest Flow Instability Indexes
  ********************************
  Link GQ67 (20)
  Link GQ29 (14)
  Link GQ121 (7)
  Link GQ114 (5)
  Link GQ44 (3)
  
  
  *************************
  Routing Time Step Summary
  *************************
  Minimum Time Step           :     1.26 sec
  Average Time Step           :     9.95 sec
  Maximum Time Step           :    30.00 sec
  Percent in Steady State     :     0.00
  Average Iterations per Step :     3.57
  Percent Not Converging      :    11.46
  
  
  ***************************
  Subcatchment Runoff Summary
  ***************************
  
  ------------------------------------------------------------------------------------------------------------------------------
                            Total      Total      Total      Total     Imperv       Perv      Total       Total     Peak  Runoff
                           Precip      Runon       Evap      Infil     Runoff     Runoff     Runoff      Runoff   Runoff   Coeff
  Subcatchment                 mm         mm         mm         mm         mm         mm         mm    10^6 ltr      CMS
  ------------------------------------------------------------------------------------------------------------------------------
  1                         26.90       0.00       0.90      15.07       9.67       0.00       9.67        3.83     0.31   0.360
  2                         26.90       0.00       1.62       5.73      16.79       0.00      16.79       15.18     1.22   0.624
  3                         26.90       0.00       1.68       4.91      17.78       0.00      17.78        7.11     0.58   0.661
  4                         26.90       0.00       1.73       4.22      18.58       0.00      18.58        1.56     0.13   0.691
  5                         26.90       0.00       1.53       6.85      16.41       0.00      16.41        2.03     0.17   0.610
  6                         26.90       0.00       1.47       7.71      15.79       0.00      15.79        1.47     0.12   0.587
  7                         26.90       0.00       1.53       6.88      16.00       0.00      16.00        6.98     0.57   0.595
  8                         26.90       0.00       1.94       1.51      20.46       0.00      20.46        2.85     0.23   0.761
  9                         26.90       0.00       2.00       0.75      21.18       0.00      21.18        2.48     0.20   0.787
  10                        26.90       0.00       1.72       4.37      18.24       0.00      18.24        4.11     0.34   0.678
  11                        26.90       0.00       1.86       2.57      19.55       0.00      19.55        9.69     0.79   0.727
  12                        26.90       0.00       1.46       7.73      15.51       0.00      15.51        7.57     0.62   0.577
  13                        26.90       0.00       1.83       2.90      19.31       0.00      19.31        8.74     0.72   0.718
  14                        26.90       0.00       1.83       2.93      19.47       0.00      19.47        3.67     0.30   0.724
  15                        26.90       0.00       1.69       4.73      17.91       0.00      17.91        6.05     0.50   0.666
  16                        26.90       0.00       1.76       3.91      18.51       0.00      18.51        5.47     0.45   0.688
  17                        26.90       0.00       1.65       5.37      17.39       0.00      17.39        7.28     0.60   0.646
  18                        26.90       0.00       1.89       2.12      19.91       0.00      19.91        8.22     0.67   0.740
  19                        26.90       0.00       1.89       2.21      19.80       0.00      19.80        4.45     0.36   0.736
  20                        26.90       0.00       1.88       2.36      19.47       0.00      19.47       10.45     0.85   0.724
  21                        26.90       0.00       2.00       0.79      20.95       0.00      20.95        6.57     0.54   0.779
  22                        26.90       0.00       1.96       1.27      20.52       0.00      20.52        2.52     0.21   0.763
  23                        26.90       0.00       1.80       3.29      18.88       0.00      18.88       10.81     0.88   0.702
  24                        26.90       0.00       1.74       4.11      18.20       0.00      18.20        3.23     0.26   0.677
  25                        26.90       0.00       1.86       2.52      19.73       0.00      19.73        4.00     0.33   0.734
  26                        26.90       0.00       1.59       6.14      16.51       0.00      16.51        5.79     0.47   0.614
  27                        26.90       0.00       1.90       2.01      19.75       0.00      19.75        8.35     0.68   0.734
  28                        26.90       0.00       1.94       1.48      20.28       0.00      20.28        9.59     0.78   0.754
  29                        26.90       0.00       1.74       4.17      18.47       0.00      18.47        4.31     0.35   0.687
  30                        26.90       0.00       1.99       0.91      21.26       0.00      21.26        1.52     0.12   0.790
  31                        26.90       0.00       2.01       0.57      21.20       0.00      21.20        4.67     0.38   0.788
  32                        26.90       0.00       1.96       1.20      20.64       0.00      20.64        8.92     0.73   0.767
  33                        26.90       0.00       1.99       0.88      20.83       0.00      20.83        7.34     0.60   0.774
  34                        26.90       0.00       1.85       2.72      19.45       0.00      19.45        5.70     0.47   0.723
  35                        26.90       0.00       1.90       2.03      19.99       0.00      19.99        8.29     0.68   0.743
  36                        26.90       0.00       1.57       6.41      16.60       0.00      16.60        6.53     0.53   0.617
  37                        26.90       0.00       1.94       1.45      20.44       0.00      20.44        4.54     0.37   0.760
  38                        26.90       0.00       1.82       3.05      19.23       0.00      19.23        7.33     0.60   0.715
  39                        26.90       0.00       1.65       5.35      17.45       0.00      17.45        7.37     0.60   0.649
  40                        26.90       0.00       1.83       2.91      19.32       0.00      19.32        4.42     0.36   0.718
  41                        26.90       0.00       1.87       2.37      19.89       0.00      19.89        3.92     0.32   0.739
  42                        26.90       0.00       1.87       2.39      19.51       0.00      19.51        4.82     0.39   0.725
  43                        26.90       0.00       1.58       6.29      16.48       0.00      16.48       13.03     1.05   0.613
  44                        26.90       0.00       1.68       4.90      17.58       0.00      17.58        8.50     0.69   0.654
  45                        26.90       0.00       1.58       6.24      16.59       0.00      16.59       12.01     0.98   0.617
  46                        26.90       0.00       1.52       6.95      16.24       0.00      16.24        8.12     0.66   0.604
  47                        26.90       0.00       1.60       5.95      16.82       0.00      16.82       19.61     1.60   0.625
  48                        26.90       0.00       1.91       1.86      19.84       0.00      19.84       11.52     0.93   0.738
  49                        26.90       0.00       1.75       3.98      18.18       0.00      18.18       12.31     1.00   0.676
  50                        26.90       0.00       1.94       1.51      19.95       0.00      19.95        7.84     0.62   0.742
  51                        26.90       0.00       1.86       2.61      19.14       0.00      19.14        3.58     0.29   0.712
  52                        26.90       0.00       0.90      15.09       9.75       0.00       9.75       10.00     0.81   0.362
  53                        26.90       0.00       1.31       9.80      13.96       0.00      13.96       14.87     1.21   0.519
  54                        26.90       0.00       1.61       5.79      17.06       0.00      17.06        4.16     0.34   0.634
  55                        26.90       0.00       0.92      14.81       9.96       0.00       9.96        7.86     0.64   0.370
  56                        26.90       0.00       0.35      22.34       3.88       0.00       3.88        3.16     0.25   0.144
  57                        26.90       0.00       1.83       3.00      18.97       0.00      18.97       15.76     1.28   0.705
  58                        26.90       0.00       1.69       4.75      17.88       0.00      17.88        2.94     0.24   0.665
  59                        26.90       0.00       1.65       5.28      17.71       0.00      17.71        2.25     0.18   0.658
  60                        26.90       0.00       0.62      18.80       6.77       0.00       6.77        1.94     0.15   0.252
  61                        26.90       0.00       0.96      14.30      10.25       0.00      10.25        3.86     0.32   0.381
  62                        26.90       0.00       1.34       9.36      14.09       0.00      14.09       16.51     1.34   0.524
  63                        26.90       0.00       1.83       2.97      18.87       0.00      18.87       36.49     2.92   0.702
  64                        26.90       0.00       1.36       9.04      14.50       0.00      14.50        3.11     0.25   0.539
  65                        26.90       0.00       1.86       2.62      19.17       0.00      19.17       12.89     1.04   0.713
  66                        26.90       0.00       1.46       7.78      15.29       0.00      15.29        3.90     0.32   0.568
  67                        26.90       0.00       1.37       9.03      14.57       0.00      14.57        4.71     0.38   0.542
  68                        26.90       0.00       1.64       5.46      17.39       0.00      17.39        1.93     0.16   0.647
  69                        26.90       0.00       0.96      14.32      10.46       0.00      10.46        3.35     0.27   0.389
  70                        26.90       0.00       1.35       9.19      14.30       0.00      14.30       11.76     0.96   0.531
  71                        26.90       0.00       1.67       5.03      17.73       0.00      17.73        2.17     0.18   0.659
  72                        26.90       0.00       1.76       3.84      18.68       0.00      18.68        2.33     0.19   0.694
  73                        26.90       0.00       1.60       6.01      17.07       0.00      17.07        2.84     0.23   0.635
  74                        26.90       0.00       1.52       6.99      16.24       0.00      16.24        3.49     0.29   0.604
  75                        26.90       0.00       1.69       4.76      17.96       0.00      17.96        2.59     0.21   0.668
  76                        26.90       0.00       1.78       3.61      18.94       0.00      18.94        1.83     0.15   0.704
  77                        26.90       0.00       1.90       2.07      20.04       0.00      20.04        2.17     0.18   0.745
  78                        26.90       0.00       1.83       2.94      19.30       0.00      19.30        2.12     0.17   0.718
  79                        26.90       0.00       0.80      16.39       8.69       0.00       8.69        9.22     0.74   0.323
  80                        26.90       0.00       1.51       7.10      15.87       0.00      15.87        9.94     0.81   0.590
  81                        26.90       0.00       1.54       6.79      16.09       0.00      16.09        7.01     0.57   0.598
  82                        26.90       0.00       1.47       7.64      15.43       0.00      15.43       14.14     1.15   0.574
  83                        26.90       0.00       1.84       2.82      19.51       0.00      19.51        2.38     0.20   0.725
  84                        26.90       0.00       1.74       4.18      18.32       0.00      18.32        2.19     0.18   0.681
  85                        26.90       0.00       2.04       0.20      21.70       0.00      21.70        2.02     0.17   0.807
  86                        26.90       0.00       1.88       2.27      19.89       0.00      19.89        2.93     0.24   0.739
  87                        26.90       0.00       2.01       0.58      21.13       0.00      21.13        2.78     0.23   0.785
  88                        26.90       0.00       1.80       3.35      19.11       0.00      19.11        1.83     0.15   0.710
  89                        26.90       0.00       1.89       2.16      20.04       0.00      20.04        3.86     0.32   0.745
  90                        26.90       0.00       2.06       0.01      22.03       0.00      22.03        0.25     0.02   0.819
  91                        26.90       0.00       1.71       4.51      17.78       0.00      17.78        3.88     0.31   0.661
  92                        26.90       0.00       1.90       2.09      20.04       0.00      20.04        2.50     0.21   0.745
  93                        26.90       0.00       1.55       6.68      16.30       0.00      16.30        8.34     0.68   0.606
  94                        26.90       0.00       1.39       8.71      15.01       0.00      15.01        1.05     0.09   0.558
  95                        26.90       0.00       2.05       0.03      21.83       0.00      21.83        0.48     0.04   0.811
  96                        26.90       0.00       1.66       5.21      17.64       0.00      17.64        2.16     0.18   0.656
  97                        26.90       0.00       2.01       0.57      21.29       0.00      21.29        2.11     0.17   0.791
  98                        26.90       0.00       1.67       5.08      17.77       0.00      17.77        2.19     0.18   0.661
  99                        26.90       0.00       0.83      16.09       8.96       0.00       8.96        3.33     0.27   0.333
  100                       26.90       0.00       0.92      14.89       9.96       0.00       9.96        2.56     0.21   0.370
  101                       26.90       0.00       0.94      14.59      10.12       0.00      10.12        4.96     0.40   0.376
  102                       26.90       0.00       1.53       6.84      16.25       0.00      16.25        3.96     0.32   0.604
  103                       26.90       0.00       0.51      20.19       5.69       0.00       5.69        2.07     0.16   0.211
  104                       26.90       0.00       0.35      22.36       3.83       0.00       3.83        3.71     0.29   0.142
  105                       26.90       0.00       1.69       4.78      18.02       0.00      18.02        2.36     0.19   0.670
  106                       26.90       0.00       0.92      14.92       9.90       0.00       9.90        2.42     0.19   0.368
  
  
  ******************
  Node Depth Summary
  ******************
  
  ---------------------------------------------------------------------------------
                                 Average  Maximum  Maximum  Time of Max    Reported
                                   Depth    Depth      HGL   Occurrence   Max Depth
  Node                 Type       Meters   Meters   Meters  days hr:min      Meters
  ---------------------------------------------------------------------------------
  jd1                  JUNCTION     0.07     0.15   273.15     0  09:00        0.15
  jd2                  JUNCTION     0.18     0.41   267.41     0  09:00        0.41
  jd3                  JUNCTION     2.78     3.00   266.00     0  02:45        3.00
  jd4                  JUNCTION     0.49     3.00   270.00     0  08:28        3.00
  jd5                  JUNCTION     0.05     0.11   274.11     0  09:00        0.11
  jd6                  JUNCTION     0.06     0.13   275.13     0  09:00        0.13
  jd7                  JUNCTION     0.23     0.43   264.53     0  09:00        0.43
  jd8                  JUNCTION     1.11     3.00   267.00     0  08:17        3.00
  jd9                  JUNCTION     0.62     3.00   268.00     0  08:17        3.00
  jd10                 JUNCTION     2.80     3.00   273.00     0  02:38        3.00
  jd11                 JUNCTION     0.06     0.12   282.12     0  09:00        0.12
  jd12                 JUNCTION     2.81     3.00   272.00     0  02:31        3.00
  jd13                 JUNCTION     0.07     0.15   289.15     0  09:00        0.15
  jd14                 JUNCTION     0.14     0.33   280.33     0  09:00        0.33
  jd15                 JUNCTION     0.15     0.33   278.33     0  09:00        0.33
  jd16                 JUNCTION     0.17     0.37   274.37     0  09:00        0.37
  jd17                 JUNCTION     1.53     3.00   278.80     0  03:08        3.00
  jd18                 JUNCTION     0.14     0.37   279.37     0  09:00        0.37
  jd19                 JUNCTION     0.46     3.00   270.00     0  08:24        2.86
  jd20                 JUNCTION     0.15     0.24   273.24     0  09:00        0.24
  jd21                 JUNCTION     2.78     3.00   273.00     0  02:43        3.00
  jd22                 JUNCTION     1.16     2.96   274.96     0  09:00        2.96
  jd23                 JUNCTION     0.13     0.29   278.29     0  09:00        0.29
  jd24                 JUNCTION     0.08     0.17   285.17     0  09:00        0.17
  jd25                 JUNCTION     0.13     0.29   279.29     0  09:00        0.29
  jd26                 JUNCTION     0.15     0.33   285.33     0  09:00        0.33
  jd27                 JUNCTION     0.12     0.26   291.26     0  09:00        0.26
  jd28                 JUNCTION     2.83     3.00   290.00     0  02:23        3.00
  jd29                 JUNCTION     0.06     0.12   299.12     0  09:00        0.12
  jd30                 JUNCTION     0.07     0.16   290.16     0  09:00        0.16
  jd31                 JUNCTION     0.93     2.52   274.52     0  03:05        1.13
  jd32                 JUNCTION     2.82     3.00   275.00     0  02:28        3.00
  jd33                 JUNCTION     0.11     0.23   289.23     0  09:00        0.23
  jd34                 JUNCTION     0.12     0.27   294.27     0  09:00        0.27
  jd35                 JUNCTION     2.85     3.00   292.00     0  02:11        3.00
  jd36                 JUNCTION     0.17     0.42   299.42     0  09:00        0.42
  jd37                 JUNCTION     0.17     0.40   303.40     0  09:00        0.40
  jd38                 JUNCTION     0.21     0.47   297.47     0  09:00        0.47
  jd39                 JUNCTION     2.79     3.00   297.00     0  02:45        3.00
  jd40                 JUNCTION     0.40     3.00   302.00     0  08:39        3.00
  jd41                 JUNCTION     2.70     3.00   296.00     0  03:30        3.00
  jd42                 JUNCTION     0.11     0.24   305.24     0  09:00        0.24
  jd43                 JUNCTION     0.35     3.00   300.00     0  08:46        3.00
  jd44                 JUNCTION     0.38     3.00   286.00     0  08:43        2.72
  jd45                 JUNCTION     2.81     3.00   282.00     0  02:36        3.00
  jd46                 JUNCTION     0.16     0.34   275.34     0  09:01        0.34
  jd47                 JUNCTION     0.09     0.19   315.19     0  09:00        0.19
  jd48                 JUNCTION     0.06     0.14   325.14     0  09:00        0.14
  jd49                 JUNCTION     0.14     0.31   289.31     0  09:00        0.31
  jd50                 JUNCTION     2.84     3.00   278.00     0  02:20        3.00
  jd51                 JUNCTION     2.63     3.00   313.00     0  04:12        3.00
  jd52                 JUNCTION     0.22     0.52   323.52     0  09:00        0.52
  jd53                 JUNCTION     0.22     0.56   322.56     0  09:00        0.56
  jd54                 JUNCTION     0.16     0.35   326.35     0  09:00        0.35
  jd55                 JUNCTION     1.17     1.69   323.69     0  09:00        1.69
  jd56                 JUNCTION     0.10     0.23   327.23     0  09:00        0.23
  jd59                 JUNCTION     2.55     3.00   320.80     0  04:47        3.00
  jd60                 JUNCTION     2.82     3.00   319.00     0  02:30        3.00
  jd61                 JUNCTION     0.08     0.18   329.18     0  09:00        0.18
  jd62                 JUNCTION     0.04     0.08   335.08     0  09:00        0.08
  jd63                 JUNCTION     0.04     0.09   324.09     0  09:00        0.09
  jd64                 JUNCTION     2.36     2.90   320.90     0  04:47        2.82
  jd65                 JUNCTION     0.75     3.00   307.00     0  08:14        3.00
  jd66                 JUNCTION     2.79     3.00   304.00     0  02:41        3.00
  jd69                 JUNCTION     0.13     0.28   333.28     0  09:00        0.28
  jd79                 JUNCTION     2.66     3.00   274.00     0  02:26        3.00
  jd80                 JUNCTION     1.63     3.00   279.00     0  02:59        3.00
  jd81                 JUNCTION     0.08     0.18   288.18     0  09:00        0.18
  jd83                 JUNCTION     2.86     3.00   323.00     0  02:10        3.00
  jd84                 JUNCTION     0.13     0.30   323.30     0  09:00        0.30
  jd85                 JUNCTION     2.80     3.00   324.00     0  02:38        3.00
  jd87                 JUNCTION     2.81     3.00   322.00     0  02:35        3.00
  jd89                 JUNCTION     0.09     0.20   324.20     0  09:00        0.20
  jd90                 JUNCTION     0.08     0.17   328.17     0  09:00        0.17
  jd92                 JUNCTION     0.08     0.17   326.17     0  09:00        0.17
  jd93                 JUNCTION     0.23     0.55   324.55     0  09:00        0.55
  jd94                 JUNCTION     0.14     0.31   326.51     0  09:00        0.31
  jd95                 JUNCTION     0.19     0.41   327.41     0  09:00        0.41
  jd96                 JUNCTION     2.82     3.00   308.00     0  02:30        3.00
  jd97                 JUNCTION     0.19     0.42   327.62     0  09:00        0.42
  jd98                 JUNCTION     0.11     0.23   329.23     0  09:00        0.23
  jd99                 JUNCTION     2.79     3.00   327.00     0  02:42        3.00
  jd101                JUNCTION     0.07     0.14   321.14     0  09:00        0.14
  jd102                JUNCTION     0.13     0.29   324.29     0  09:00        0.29
  jd103                JUNCTION     0.07     0.14   318.14     0  09:00        0.14
  jd106                JUNCTION     2.73     3.00   287.00     0  03:06        3.00
  jd107                JUNCTION     0.12     0.26   332.26     0  09:00        0.26
  jd108                JUNCTION     1.06     1.27   327.27     0  08:47        1.27
  jd109                JUNCTION     0.09     0.20   343.20     0  09:00        0.20
  jd110                JUNCTION     2.80     3.00   327.00     0  02:39        3.00
  jd111                JUNCTION     0.04     0.09   344.09     0  09:00        0.09
  jd112                JUNCTION     0.06     0.12   334.12     0  09:00        0.12
  jd113                JUNCTION     0.06     0.13   348.13     0  09:00        0.13
  jd114                JUNCTION     2.81     3.00   317.00     0  02:34        3.00
  jd117                JUNCTION     0.97     2.54   318.54     0  02:44        1.35
  jd118                JUNCTION     0.05     0.11   330.11     0  09:00        0.11
  jd120                JUNCTION     0.09     0.20   327.20     0  09:00        0.20
  jd121                JUNCTION     0.09     0.20   320.20     0  09:00        0.20
  jd122                JUNCTION     2.78     3.00   276.00     0  02:44        3.00
  jd123                JUNCTION     2.77     3.00   276.20     0  02:47        3.00
  jd124                JUNCTION     2.88     3.00   271.00     0  01:54        3.00
  jd125                JUNCTION     0.46     3.00   278.00     0  08:27        3.00
  jd126                JUNCTION     2.86     3.00   275.00     0  02:10        3.00
  jd135                JUNCTION     0.08     0.17   289.17     0  09:00        0.17
  jd136                JUNCTION     0.15     0.32   341.32     0  09:00        0.32
  psk1                 OUTFALL      0.06     0.12   279.12     0  09:00        0.12
  psk2                 OUTFALL      0.07     0.16   270.16     0  09:00        0.16
  psk3                 OUTFALL      0.17     0.37   271.37     0  09:00        0.37
  psk4                 OUTFALL      0.00     0.00   280.00     0  00:00        0.00
  psk5                 OUTFALL      0.07     0.15   263.15     0  09:00        0.15
  psk6                 OUTFALL      0.05     0.11   259.11     0  09:00        0.11
  psk7                 OUTFALL      0.23     0.43   262.43     0  09:00        0.43
  psk8                 OUTFALL      0.00     0.00   317.00     0  00:00        0.00
  
  
  *******************
  Node Inflow Summary
  *******************
  
  -------------------------------------------------------------------------------------------------
                                  Maximum  Maximum                  Lateral       Total        Flow
                                  Lateral    Total  Time of Max      Inflow      Inflow     Balance
                                   Inflow   Inflow   Occurrence      Volume      Volume       Error
  Node                 Type           CMS      CMS  days hr:min    10^6 ltr    10^6 ltr     Percent
  -------------------------------------------------------------------------------------------------
  jd1                  JUNCTION     0.310    0.499     0  09:00        3.81        6.23       0.653
  jd2                  JUNCTION     0.468    0.642     0  09:00        5.77        7.94       0.945
  jd3                  JUNCTION     0.567    1.711     0  09:00        6.94        23.6       1.730
  jd4                  JUNCTION     0.678    0.760     0  09:00        8.31        9.32       1.146
  jd5                  JUNCTION     0.203    0.351     0  09:00        2.47        4.36       0.322
  jd6                  JUNCTION     0.234    0.234     0  09:00        2.84        2.84       0.430
  jd7                  JUNCTION     0.119    1.603     0  09:00        1.46        26.2       0.416
  jd8                  JUNCTION     0.165    1.111     0  09:00        2.02        19.7       1.254
  jd9                  JUNCTION     0.127    1.157     0  09:00        1.55        18.2       0.941
  jd10                 JUNCTION     0.337    0.428     0  09:00        4.09        5.21       1.978
  jd11                 JUNCTION     0.496    0.496     0  09:00        6.02        6.02       0.564
  jd12                 JUNCTION     0.372    0.808     0  09:00        4.51        9.74       1.429
  jd13                 JUNCTION     0.674    0.674     0  09:00        8.18        8.18       0.423
  jd14                 JUNCTION     0.783    0.882     0  09:00        9.54        10.7       0.687
  jd15                 JUNCTION     0.328    0.707     0  09:00        3.97        8.57       1.796
  jd16                 JUNCTION     0.353    1.345     0  09:00        4.29        16.1       0.767
  jd17                 JUNCTION     0.731    1.762     0  09:00        8.87        28.4       2.765
  jd18                 JUNCTION     0.583    0.846     0  09:00        7.08        10.2       1.089
  jd19                 JUNCTION     0.542    1.030     0  09:00        6.58        16.8       0.537
  jd20                 JUNCTION     0.448    0.674     0  09:00        5.44        14.1       0.633
  jd21                 JUNCTION     0.207    1.746     0  09:00        2.51        22.9       1.493
  jd22                 JUNCTION     0.365    0.815     0  09:00        4.43          10       0.834
  jd23                 JUNCTION     0.362    1.006     0  09:00         4.4        12.1       0.615
  jd24                 JUNCTION     0.596    0.596     0  09:00        7.24        7.24       0.542
  jd25                 JUNCTION     0.467    0.677     0  09:00        5.67        8.18       0.825
  jd26                 JUNCTION     0.680    1.132     0  09:00        8.25        13.7       0.746
  jd27                 JUNCTION     0.693    1.161     0  09:00        8.46        14.1       0.647
  jd28                 JUNCTION     0.933    1.320     0  09:00        11.5        16.1       0.840
  jd29                 JUNCTION     0.384    0.384     0  09:00        4.65        4.65       0.356
  jd30                 JUNCTION     0.393    1.127     0  09:00         4.8        13.1       0.417
  jd31                 JUNCTION     0.263    0.540     0  09:00        3.21        7.02       6.837
  jd32                 JUNCTION     0.540    2.405     0  09:00        6.54        28.3       0.892
  jd33                 JUNCTION     0.533    0.887     0  09:00         6.5        10.8       0.460
  jd34                 JUNCTION     0.662    0.662     0  09:00        8.08        8.08       0.384
  jd35                 JUNCTION     0.603    2.052     0  09:00        7.33        25.4       0.524
  jd36                 JUNCTION     0.996    1.631     0  09:00        12.3        20.1       0.783
  jd37                 JUNCTION     1.055    1.055     0  09:00          13          13       0.499
  jd38                 JUNCTION     0.977    1.606     0  09:00        11.9        19.7       1.070
  jd39                 JUNCTION     0.681    2.889     0  09:00         8.3        36.9       1.402
  jd40                 JUNCTION     1.148    2.845     0  09:00        14.1        33.7       1.043
  jd41                 JUNCTION     0.811    3.300     0  09:00        9.89        41.2       5.471
  jd42                 JUNCTION     1.038    1.142     0  09:00        12.8        14.1       0.757
  jd43                 JUNCTION     1.208    2.137     0  09:00        14.8        25.5       1.286
  jd44                 JUNCTION     1.597    3.791     0  08:43        19.5        48.6       1.058
  jd45                 JUNCTION     0.625    2.768     0  09:00        7.81        31.4       1.047
  jd46                 JUNCTION     0.287    0.287     0  09:00        3.57        3.57       2.073
  jd47                 JUNCTION     0.960    0.960     0  09:00        11.7        11.7       0.621
  jd48                 JUNCTION     0.269    0.269     0  09:00        3.33        3.33       0.618
  jd49                 JUNCTION     1.275    1.275     0  09:00        15.7        15.7       0.630
  jd50                 JUNCTION     1.339    3.359     0  09:00        16.4        58.3       0.755
  jd51                 JUNCTION     0.285    1.305     0  09:00        3.48        15.9       9.458
  jd52                 JUNCTION     0.570    2.303     0  09:00        6.98        26.9       0.962
  jd53                 JUNCTION     0.314    1.768     0  09:00        3.86        21.1       0.604
  jd54                 JUNCTION     0.174    0.863     0  09:00         2.1        10.5       0.842
  jd55                 JUNCTION     0.317    1.049     0  09:00        3.84        12.5       7.605
  jd56                 JUNCTION     0.193    0.564     0  09:00        2.34        6.84       0.731
  jd59                 JUNCTION     0.191    0.944     0  09:00        2.31        11.1       7.532
  jd60                 JUNCTION     0.341    0.723     0  09:00        4.14        8.84       1.477
  jd61                 JUNCTION     0.381    0.429     0  09:00        4.69        5.28       0.514
  jd62                 JUNCTION     0.155    0.155     0  09:00        1.93        1.93       0.257
  jd63                 JUNCTION     0.212    0.212     0  09:00        2.58        2.58       0.386
  jd64                 JUNCTION     0.178    0.440     0  09:00        2.16        5.35       7.538
  jd65                 JUNCTION     2.919    2.919     0  09:00        36.3        36.3       0.451
  jd66                 JUNCTION     0.399    1.161     0  09:00        4.93        14.3       2.269
  jd69                 JUNCTION     0.742    0.763     0  09:00        9.17        9.43       0.730
  jd79                 JUNCTION     0.716    1.331     0  09:00        8.69        15.1       1.181
  jd80                 JUNCTION     0.794    1.016     0  09:00        9.64        13.3       1.161
  jd81                 JUNCTION     0.601    0.601     0  09:00        7.31        7.31       0.185
  jd83                 JUNCTION     0.636    0.813     0  09:00        7.82        10.7       0.812
  jd84                 JUNCTION     0.808    0.808     0  09:00        9.95        9.95       0.544
  jd85                 JUNCTION     0.184    0.301     0  09:00        2.24        3.69       2.339
  jd87                 JUNCTION     0.150    0.361     0  09:00        1.83        4.41       1.710
  jd89                 JUNCTION     0.174    0.174     0  09:00        2.11        2.11       0.748
  jd90                 JUNCTION     0.178    0.178     0  09:00        2.16        2.16       0.557
  jd92                 JUNCTION     0.150    0.150     0  09:00        1.82        1.82       0.423
  jd93                 JUNCTION     0.316    0.689     0  09:00        3.88        8.35       0.869
  jd94                 JUNCTION     0.021    0.374     0  09:00       0.251        4.52       1.013
  jd95                 JUNCTION     0.039    0.354     0  09:00       0.474        4.31       0.950
  jd96                 JUNCTION     0.294    0.391     0  09:00        3.69        4.87       2.014
  jd97                 JUNCTION     0.315    0.315     0  09:00        3.85        3.85       0.268
  jd98                 JUNCTION     0.176    0.176     0  09:00        2.14        2.14       0.459
  jd99                 JUNCTION     0.085    0.271     0  09:00        1.05        3.62       1.582
  jd101                JUNCTION     0.231    0.459     0  09:00        2.82        5.57       0.505
  jd102                JUNCTION     0.228    0.228     0  09:00        2.76        2.76       0.620
  jd103                JUNCTION     0.158    0.158     0  09:00        1.92        1.92       0.231
  jd106                JUNCTION     0.124    0.716     0  09:00        1.52        8.58       4.711
  jd107                JUNCTION     0.179    0.587     0  09:00        2.18        7.15       0.815
  jd108                JUNCTION     0.195    0.195     0  09:00         2.4        2.42       2.763
  jd109                JUNCTION     0.324    0.324     0  09:00        3.94        3.94       0.202
  jd110                JUNCTION     0.248    0.369     0  09:00        3.14        4.64       3.362
  jd111                JUNCTION     0.205    0.205     0  09:00        2.54        2.54       0.441
  jd112                JUNCTION     0.240    0.670     0  09:00        2.91        8.23       0.348
  jd113                JUNCTION     0.163    0.163     0  09:00        2.06        2.06       0.127
  jd114                JUNCTION     0.195    2.544     0  09:00        2.37        30.5       1.050
  jd117                JUNCTION     0.179    0.592     0  09:00        2.18        7.32       2.198
  jd118                JUNCTION     0.165    0.165     0  09:00        2.01        2.01       0.118
  jd120                JUNCTION     0.206    0.206     0  09:00        2.49        2.49       0.374
  jd121                JUNCTION     0.252    0.252     0  09:00         3.1         3.1       0.443
  jd122                JUNCTION     0.601    2.384     0  09:00         7.3        40.8       1.392
  jd123                JUNCTION     0.619    2.289     0  09:00        7.53        42.8       1.654
  jd124                JUNCTION     0.883    1.956     0  09:00        10.8        30.1       0.206
  jd125                JUNCTION     0.847    2.492     0  09:00        10.4        34.9       0.445
  jd126                JUNCTION     1.222    1.721     0  09:00        15.1        21.2       0.491
  jd135                JUNCTION     0.322    0.322     0  09:00         3.9         3.9       0.322
  jd136                JUNCTION     0.267    0.430     0  09:00        3.31        5.36       0.868
  psk1                 OUTFALL      0.000    0.319     0  09:00           0        3.88       0.000
  psk2                 OUTFALL      0.000    0.829     0  09:00           0        9.62       0.000
  psk3                 OUTFALL      0.000    1.340     0  09:00           0          16       0.000
  psk4                 OUTFALL      0.000    0.000     0  00:00           0           0       0.000 ltr
  psk5                 OUTFALL      0.000    0.323     0  09:00           0        4.02       0.000
  psk6                 OUTFALL      0.000    0.269     0  09:00           0        3.33       0.000
  psk7                 OUTFALL      0.000    1.603     0  09:00           0        26.1       0.000
  psk8                 OUTFALL      0.000    0.000     0  00:00           0           0       0.000 ltr
  
  
  **********************
  Node Surcharge Summary
  **********************
  
  Surcharging occurs when water rises above the top of the highest conduit.
  ---------------------------------------------------------------------
                                               Max. Height   Min. Depth
                                   Hours       Above Crown    Below Rim
  Node                 Type      Surcharged         Meters       Meters
  ---------------------------------------------------------------------
  jd3                  JUNCTION       14.24          2.200        0.000
  jd4                  JUNCTION        1.23          2.200        0.000
  jd8                  JUNCTION        7.55          2.200        0.000
  jd9                  JUNCTION        1.77          2.200        0.000
  jd10                 JUNCTION       14.36          2.400        0.000
  jd12                 JUNCTION       14.47          2.400        0.000
  jd17                 JUNCTION        8.67          2.200        0.000
  jd19                 JUNCTION        0.83          2.200        0.000
  jd21                 JUNCTION       14.29          2.200        0.000
  jd22                 JUNCTION       14.02          2.359        0.041
  jd28                 JUNCTION       14.62          2.400        0.000
  jd31                 JUNCTION       13.91          1.716        0.484
  jd32                 JUNCTION       14.53          2.200        0.000
  jd35                 JUNCTION       14.81          2.400        0.000
  jd39                 JUNCTION       14.25          2.000        0.000
  jd40                 JUNCTION        0.59          2.200        0.000
  jd41                 JUNCTION       13.51          1.000        0.000
  jd43                 JUNCTION        0.32          2.200        0.000
  jd44                 JUNCTION        0.48          2.000        0.000
  jd45                 JUNCTION       14.40          2.000        0.000
  jd50                 JUNCTION       14.66          2.200        0.000
  jd51                 JUNCTION       12.83          1.350        0.000
  jd55                 JUNCTION        0.80          0.190        1.310
  jd59                 JUNCTION       12.23          1.500        0.000
  jd60                 JUNCTION       14.49          2.400        0.000
  jd64                 JUNCTION       12.33          1.703        0.097
  jd65                 JUNCTION        1.92          2.400        0.000
  jd66                 JUNCTION       14.31          2.200        0.000
  jd79                 JUNCTION       14.56          2.400        0.000
  jd80                 JUNCTION       10.62          2.400        0.000
  jd83                 JUNCTION       14.83          2.400        0.000
  jd85                 JUNCTION       14.36          2.400        0.000
  jd87                 JUNCTION       14.42          2.400        0.000
  jd96                 JUNCTION       14.49          2.200        0.000
  jd99                 JUNCTION       14.30          2.400        0.000
  jd106                JUNCTION       13.89          2.000        0.000
  jd108                JUNCTION       14.45          0.268        1.732
  jd110                JUNCTION       14.34          2.000        0.000
  jd114                JUNCTION       14.43          2.000        0.000
  jd117                JUNCTION       14.26          1.736        0.464
  jd122                JUNCTION       14.27          2.200        0.000
  jd123                JUNCTION       14.22          2.200        0.000
  jd124                JUNCTION       15.10          2.400        0.000
  jd125                JUNCTION        1.06          2.200        0.000
  jd126                JUNCTION       14.83          2.400        0.000
  
  
  *********************
  Node Flooding Summary
  *********************
  
  Flooding refers to all water that overflows a node, whether it ponds or not.
  --------------------------------------------------------------------------
                                                             Total   Maximum
                                 Maximum   Time of Max       Flood    Ponded
                        Hours       Rate    Occurrence      Volume     Depth
  Node                 Flooded       CMS   days hr:min    10^6 ltr    Meters
  --------------------------------------------------------------------------
  jd3                    14.24     1.711      0  09:00      23.173     0.000
  jd4                     0.73     0.255      0  08:28       0.455     0.000
  jd8                     0.71     0.124      0  08:17       0.188     0.000
  jd9                     0.69     0.258      0  08:17       0.385     0.000
  jd10                   14.36     0.428      0  09:00       5.106     0.000
  jd12                   14.47     0.808      0  09:00       9.603     0.000
  jd17                    1.52     0.933      0  09:00       2.703     0.000
  jd19                    0.01     0.193      0  08:24       0.003     0.000
  jd21                   13.91     1.746      0  09:00      22.231     0.000
  jd28                   14.61     1.320      0  09:00      16.007     0.000
  jd32                   14.52     2.405      0  09:00      28.049     0.000
  jd35                   14.81     2.052      0  09:00      25.317     0.000
  jd39                   14.25     2.889      0  09:00      36.402     0.000
  jd40                    0.43     0.518      0  08:39       0.294     0.000
  jd41                   13.50     3.299      0  09:00      39.041     0.000
  jd43                    0.28     0.324      0  08:46       0.243     0.000
  jd44                    0.01     0.622      0  08:43       0.011     0.000
  jd45                   14.40     2.768      0  09:00      31.047     0.000
  jd50                   14.66     3.358      0  09:00      57.838     0.000
  jd51                   12.80     1.305      0  09:00      14.517     0.000
  jd59                   12.20     0.944      0  09:00      10.278     0.000
  jd60                   14.49     0.723      0  09:00       8.714     0.000
  jd65                    1.85     1.826      0  09:00       5.730     0.000
  jd66                   14.31     1.161      0  09:00      13.977     0.000
  jd79                    7.33     1.105      0  09:00       6.248     0.000
  jd80                    3.63     0.858      0  09:00       4.205     0.000
  jd83                   14.83     0.813      0  09:00      10.631     0.000
  jd85                   14.35     0.301      0  09:00       3.610     0.000
  jd87                   14.41     0.361      0  09:00       4.332     0.000
  jd96                   14.49     0.391      0  09:00       4.772     0.000
  jd99                   14.30     0.271      0  09:00       3.565     0.000
  jd106                  13.89     0.715      0  09:00       8.193     0.000
  jd110                  14.34     0.369      0  09:00       4.491     0.000
  jd114                  14.26     2.544      0  09:00      30.099     0.000
  jd122                  14.22     2.384      0  09:00      40.178     0.000
  jd123                  12.79     1.974      0  09:00      26.410     0.000
  jd124                  15.09     1.955      0  09:00      30.052     0.000
  jd125                   0.33     0.527      0  08:27       0.087     0.000
  jd126                  14.83     1.721      0  09:00      21.076     0.000
  
  
  ***********************
  Outfall Loading Summary
  ***********************
  
  -----------------------------------------------------------
                         Flow       Avg       Max       Total
                         Freq      Flow      Flow      Volume
  Outfall Node           Pcnt       CMS       CMS    10^6 ltr
  -----------------------------------------------------------
  psk1                  98.00     0.084     0.319       3.875
  psk2                  98.00     0.209     0.829       9.625
  psk3                  97.98     0.348     1.340      16.012
  psk4                   0.00     0.000     0.000       0.000
  psk5                  97.98     0.087     0.323       4.017
  psk6                  98.00     0.072     0.269       3.329
  psk7                  97.98     0.549     1.603      26.064
  psk8                   0.00     0.000     0.000       0.000
  -----------------------------------------------------------
  System                73.49     1.349     0.000      62.923
  
  
  ********************
  Link Flow Summary
  ********************
  
  -----------------------------------------------------------------------------
                                 Maximum  Time of Max   Maximum    Max/    Max/
                                  |Flow|   Occurrence   |Veloc|    Full    Full
  Link                 Type          CMS  days hr:min     m/sec    Flow   Depth
  -----------------------------------------------------------------------------
  GQ1                  CONDUIT     0.189     0  09:00      1.77    0.50    0.41
  GQ2                  CONDUIT     0.510     0  09:00      2.07    0.24    0.35
  GQ3                  CONDUIT     0.319     0  09:00      5.07    0.01    0.08
  GQ4                  CONDUIT     0.510     0  08:46      1.80    1.00    1.00
  GQ5                  CONDUIT     0.635     0  09:00      1.55    0.53    0.76
  GQ6                  CONDUIT     0.174     0  09:00      1.10    0.08    0.35
  GQ7                  CONDUIT     1.649     0  08:44      3.56    0.98    1.00
  GQ8                  CONDUIT     0.341     0  09:00      0.93    0.33    0.70
  GQ9                  CONDUIT     0.927     0  09:00      2.48    0.33    0.70
  GQ10                 CONDUIT     1.134     0  10:11      4.10    1.04    1.00
  GQ11                 CONDUIT     0.104     0  09:00      1.50    0.11    0.31
  GQ12                 CONDUIT     0.120     0  09:00      0.65    0.13    0.62
  GQ13                 CONDUIT     0.082     0  09:00      0.47    0.04    0.57
  GQ14                 CONDUIT     0.040     0  09:00      0.83    0.06    0.15
  GQ15                 CONDUIT     0.108     0  09:00      3.81    0.44    0.42
  GQ16                 CONDUIT     0.736     0  09:00      3.46    0.36    0.32
  GQ17                 CONDUIT     0.194     0  09:00      1.23    0.06    0.35
  GQ18                 CONDUIT     1.033     0  09:00      2.50    4.66    0.77
  GQ19                 CONDUIT     0.257     0  09:00      1.47    0.03    0.27
  GQ20                 CONDUIT     0.056     0  09:00      0.42    0.03    0.25
  GQ21                 CONDUIT     0.207     0  09:00      1.29    0.06    0.27
  GQ22                 CONDUIT     0.210     0  09:00      1.53    0.06    0.23
  GQ23                 CONDUIT     0.370     0  09:00      1.98    0.18    0.29
  GQ24                 CONDUIT     0.553     0  09:00      1.52    0.27    0.68
  GQ25                 CONDUIT     0.353     0  09:00      3.15    0.40    0.42
  GQ26                 CONDUIT     0.274     0  09:00      2.34    0.32    0.43
  GQ27                 CONDUIT     0.452     0  09:01      2.02    0.45    0.74
  GQ28                 CONDUIT     0.184     0  09:00      0.53    0.20    0.65
  GQ29                 CONDUIT     0.540     0  09:00      1.07    0.25    1.00
  GQ30                 CONDUIT     0.815     0  09:00      2.88    0.99    1.00
  GQ31                 CONDUIT     0.308     0  09:00      1.41    0.41    0.72
  GQ32                 CONDUIT     0.470     0  09:00      2.82    0.75    0.57
  GQ33                 CONDUIT     1.143     0  09:00      4.45    0.80    0.85
  GQ34                 CONDUIT     0.214     0  09:00      1.34    0.34    0.55
  GQ35                 CONDUIT     0.421     0  09:00      2.05    0.78    0.68
  GQ36                 CONDUIT     0.629     0  09:00      2.86    0.78    0.73
  GQ37                 CONDUIT     0.280     0  09:00      1.29    0.40    0.72
  GQ38                 CONDUIT     0.107     0  09:00      0.57    0.15    0.63
  GQ39                 CONDUIT     0.465     0  09:00      1.97    0.59    0.78
  GQ40                 CONDUIT     0.323     0  09:00      2.29    0.40    0.50
  GQ41                 CONDUIT     0.850     0  09:00      1.37    0.39    0.74
  GQ42                 CONDUIT     1.359     0  08:53      2.70    1.00    1.00
  GQ43                 CONDUIT     1.698     0  09:00      4.03    0.76    0.83
  GQ44                 CONDUIT     0.946     0  08:59      1.88    1.00    1.00
  GQ45                 CONDUIT     0.488     0  09:00      1.79    0.20    0.65
  GQ46                 CONDUIT     1.030     0  09:00      2.05    0.97    1.00
  GQ47                 CONDUIT     0.091     0  09:00      0.51    0.09    0.60
  GQ48                 CONDUIT     0.091     0  09:00      0.51    0.09    0.60
  GQ49                 CONDUIT     0.346     0  09:00      1.87    0.13    0.62
  GQ50                 CONDUIT     0.099     0  09:00      0.96    0.13    0.39
  GQ51                 CONDUIT     0.380     0  09:00      2.37    0.58    0.55
  GQ52                 CONDUIT     0.278     0  09:01      0.73    0.37    0.71
  GQ53                 CONDUIT     2.143     0  09:00      2.73    0.96    1.00
  GQ54                 CONDUIT     0.218     0  09:00      1.13    0.19    0.65
  GQ55                 CONDUIT     0.164     0  09:00      0.91    0.11    0.61
  GQ56                 CONDUIT     1.963     0  08:43      4.13    1.07    1.00
  GQ57                 CONDUIT     0.298     0  09:00      0.94    0.19    0.65
  GQ58                 CONDUIT     0.622     0  09:00      1.80    0.19    0.65
  GQ59                 CONDUIT     1.203     0  08:55      2.39    1.00    1.00
  GQ60                 CONDUIT     1.049     0  09:00      0.83    0.25    0.67
  GQ61                 CONDUIT     0.140     0  09:00      0.24    0.02    0.55
  GQ62                 CONDUIT     0.292     0  09:00      0.29    0.03    0.56
  GQ63                 CONDUIT     0.665     0  09:00      0.63    0.02    0.55
  GQ64                 CONDUIT     0.048     0  09:00      1.15    0.04    0.21
  GQ65                 CONDUIT     0.021     0  09:00      0.29    0.04    0.30
  GQ66                 CONDUIT     0.084     0  09:00      0.35    0.02    0.55
  GQ67                 CONDUIT     0.440     0  09:00      0.39    0.30    1.00
  GQ68                 CONDUIT     0.377     0  09:00      0.74    0.12    0.62
  GQ69                 CONDUIT     0.762     0  09:00      2.10    0.27    0.68
  GQ70                 CONDUIT     0.269     0  09:00      6.67    0.04    0.13
  GQ71                 CONDUIT     0.323     0  09:00      4.86    0.08    0.19
  GQ72                 CONDUIT     1.603     0  09:00      4.97    0.38    0.43
  GQ73                 CONDUIT     0.829     0  09:00     10.43    0.05    0.16
  GQ74                 CONDUIT     0.171     0  09:00      1.18    0.03    0.24
  GQ75                 CONDUIT     0.187     0  09:00      0.40    0.05    0.58
  GQ76                 CONDUIT     1.340     0  09:00      5.10    0.29    0.37
  GQ77                 CONDUIT     0.000     0  00:00      0.00    0.00    0.17
  GQ78                 CONDUIT     0.615     0  09:00      2.50    0.67    0.81
  GQ79                 CONDUIT     0.226     0  09:00      1.08    0.49    0.70
  GQ80                 CONDUIT     0.222     0  09:00      0.90    0.36    0.81
  GQ81                 CONDUIT     0.314     0  16:33      1.11    1.99    1.00
  GQ82                 CONDUIT     0.289     0  09:00      1.48    0.20    0.65
  GQ83                 CONDUIT     0.312     0  09:00      2.46    0.20    0.46
  GQ84                 CONDUIT     0.630     0  09:00      2.77    0.50    0.75
  GQ85                 CONDUIT     0.177     0  09:00      0.78    0.31    0.75
  GQ86                 CONDUIT     0.086     0  09:00      0.52    0.04    0.57
  GQ87                 CONDUIT     0.031     0  09:00      0.18    0.05    0.57
  GQ88                 CONDUIT     0.210     0  09:00      1.09    0.19    0.65
  GQ89                 CONDUIT     0.174     0  09:00      0.87    0.23    0.66
  GQ90                 CONDUIT     0.178     0  09:00      0.93    0.18    0.64
  GQ91                 CONDUIT     0.150     0  09:00      0.78    0.18    0.64
  GQ92                 CONDUIT     0.354     0  09:00      1.60    0.51    0.45
  GQ93                 CONDUIT     0.373     0  09:00      1.36    0.32    0.54
  GQ94                 CONDUIT     0.685     0  09:00      1.93    0.81    0.67
  GQ95                 CONDUIT     0.097     0  09:00      0.34    0.02    0.55
  GQ96                 CONDUIT     0.315     0  09:00      1.19    0.54    0.52
  GQ97                 CONDUIT     0.176     0  09:00      1.73    0.32    0.39
  GQ98                 CONDUIT     0.186     0  09:00      0.89    0.26    0.69
  GQ99                 CONDUIT     0.318     0  09:00      0.42    0.02    0.55
  GQ100                CONDUIT     0.228     0  09:00      2.54    0.39    0.36
  GQ101                CONDUIT     0.158     0  09:00      0.87    0.12    0.62
  GQ102                CONDUIT     0.612     0  09:00      1.78    0.19    0.65
  GQ103                CONDUIT     0.305     0  09:00      1.36    0.47    0.74
  GQ104                CONDUIT     0.552     0  09:00      2.53    0.40    0.72
  GQ105                CONDUIT     0.315     0  13:37      0.63    1.00    1.00
  GQ106                CONDUIT     0.179     0  09:00      0.93    0.18    0.64
  GQ107                CONDUIT     0.662     0  09:00      2.81    0.59    0.78
  GQ108                CONDUIT     0.829     0  08:33      1.65    1.00    1.00
  GQ109                CONDUIT     0.129     0  09:00      1.20    0.18    0.42
  GQ110                CONDUIT     0.213     0  09:00      0.47    0.03    0.56
  GQ111                CONDUIT     0.192     0  09:00      1.00    0.18    0.64
  GQ112                CONDUIT     0.586     0  09:00      2.56    0.10    0.26
  GQ113                CONDUIT     0.324     0  09:00      3.20    0.25    0.39
  GQ114                CONDUIT     0.195     0  09:00      0.38    0.08    0.62
  GQ115                CONDUIT     0.084     0  09:00      0.82    0.01    0.15
  GQ116                CONDUIT     0.121     0  09:00      0.28    0.02    0.55
  GQ117                CONDUIT     0.430     0  09:00      3.83    0.27    0.27
  GQ118                CONDUIT     0.163     0  09:00      1.68    0.06    0.28
  GQ119                CONDUIT     1.759     0  09:01      3.87    0.76    0.85
  GQ120                CONDUIT     0.000     0  00:00      0.00    0.00    0.50
  GQ121                CONDUIT     0.592     0  09:00      1.18    0.42    1.00
  GQ122                CONDUIT     0.247     0  09:00      1.21    0.05    0.57
  GQ123                CONDUIT     0.165     0  09:00      0.94    0.08    0.60
  GQ124                CONDUIT     0.104     0  09:00      0.87    0.05    0.29
  GQ125                CONDUIT     0.205     0  09:00      1.03    0.23    0.66
  GQ126                CONDUIT     0.252     0  09:00      1.26    0.24    0.67
  GQ127                CONDUIT     0.594     0  09:00      1.65    0.76    0.67
  GQ128                CONDUIT     0.861     0  09:00      2.36    0.19    0.38
  GQ129                CONDUIT     1.313     0  08:58      2.61    1.00    1.00
  GQ130                CONDUIT     1.073     0  08:57      3.79    1.00    1.00
  GQ131                CONDUIT     0.499     0  09:00      2.13    0.58    0.77
  
  
  ***************************
  Flow Classification Summary
  ***************************
  
  -------------------------------------------------------------------------------------
                      Adjusted    ---------- Fraction of Time in Flow Class ---------- 
                       /Actual         Up    Down  Sub   Sup   Up    Down  Norm  Inlet 
  Conduit               Length    Dry  Dry   Dry   Crit  Crit  Crit  Crit  Ltd   Ctrl  
  -------------------------------------------------------------------------------------
  GQ1                     1.00   0.02  0.00  0.00  0.02  0.96  0.00  0.00  0.00  0.00
  GQ2                     1.00   0.02  0.00  0.00  0.03  0.95  0.00  0.00  0.94  0.00
  GQ3                     1.00   0.02  0.00  0.00  0.00  0.98  0.00  0.00  0.27  0.00
  GQ4                     1.00   0.02  0.00  0.00  0.98  0.00  0.00  0.00  0.79  0.00
  GQ5                     1.00   0.02  0.00  0.00  0.98  0.00  0.00  0.00  0.93  0.00
  GQ6                     1.00   0.02  0.00  0.00  0.98  0.00  0.00  0.00  0.94  0.00
  GQ7                     1.00   0.02  0.00  0.00  0.09  0.89  0.00  0.00  0.05  0.00
  GQ8                     1.00   0.02  0.00  0.00  0.98  0.00  0.00  0.00  0.93  0.00
  GQ9                     1.00   0.02  0.00  0.00  0.92  0.06  0.00  0.00  0.94  0.00
  GQ10                    1.00   0.02  0.00  0.00  0.54  0.44  0.00  0.00  0.82  0.00
  GQ11                    1.00   0.02  0.00  0.00  0.20  0.78  0.00  0.00  0.94  0.00
  GQ12                    1.00   0.02  0.00  0.00  0.98  0.00  0.00  0.00  0.94  0.00
  GQ13                    1.00   0.02  0.00  0.00  0.98  0.00  0.00  0.00  0.94  0.00
  GQ14                    1.00   0.02  0.00  0.00  0.98  0.00  0.00  0.00  0.00  0.00
  GQ15                    1.00   0.02  0.00  0.00  0.00  0.98  0.00  0.00  0.01  0.00
  GQ16                    1.00   0.02  0.00  0.00  0.00  0.98  0.00  0.00  0.00  0.00
  GQ17                    1.00   0.02  0.00  0.00  0.92  0.06  0.00  0.00  0.94  0.00
  GQ18                    1.00   0.02  0.00  0.00  0.91  0.07  0.00  0.00  0.05  0.00
  GQ19                    1.00   0.02  0.00  0.00  0.81  0.17  0.00  0.00  0.94  0.00
  GQ20                    1.00   0.02  0.00  0.00  0.98  0.00  0.00  0.00  0.94  0.00
  GQ21                    1.00   0.02  0.00  0.00  0.23  0.75  0.00  0.00  0.94  0.00
  GQ22                    1.00   0.02  0.00  0.00  0.04  0.94  0.00  0.00  0.94  0.00
  GQ23                    1.00   0.02  0.00  0.00  0.01  0.97  0.00  0.00  0.09  0.00
  GQ24                    1.00   0.02  0.00  0.00  0.98  0.00  0.00  0.00  0.94  0.00
  GQ25                    1.00   0.02  0.00  0.00  0.00  0.98  0.00  0.00  0.01  0.00
  GQ26                    1.00   0.02  0.00  0.00  0.00  0.98  0.00  0.00  0.91  0.00
  GQ27                    1.00   0.02  0.00  0.00  0.93  0.05  0.00  0.00  0.93  0.00
  GQ28                    1.00   0.02  0.00  0.00  0.98  0.00  0.00  0.00  0.94  0.00
  GQ29                    1.00   0.02  0.00  0.00  0.98  0.00  0.00  0.00  0.10  0.00
  GQ30                    1.00   0.02  0.00  0.00  0.97  0.01  0.00  0.00  0.09  0.00
  GQ31                    1.00   0.02  0.00  0.00  0.98  0.00  0.00  0.00  0.94  0.00
  GQ32                    1.00   0.02  0.00  0.00  0.00  0.98  0.00  0.00  0.00  0.00
  GQ33                    1.00   0.02  0.00  0.00  0.76  0.22  0.00  0.00  0.91  0.00
  GQ34                    1.00   0.02  0.00  0.00  0.98  0.00  0.00  0.00  0.94  0.00
  GQ35                    1.00   0.02  0.00  0.00  0.00  0.98  0.00  0.00  0.71  0.00
  GQ36                    1.00   0.02  0.00  0.00  0.00  0.98  0.00  0.00  0.91  0.00
  GQ37                    1.00   0.02  0.00  0.00  0.98  0.00  0.00  0.00  0.94  0.00
  GQ38                    1.00   0.02  0.00  0.00  0.98  0.00  0.00  0.00  0.94  0.00
  GQ39                    1.00   0.02  0.00  0.00  0.97  0.01  0.00  0.00  0.94  0.00
  GQ40                    1.00   0.02  0.00  0.00  0.01  0.97  0.00  0.00  0.94  0.00
  GQ41                    1.00   0.02  0.00  0.00  0.98  0.00  0.00  0.00  0.91  0.00
  GQ42                    1.00   0.02  0.00  0.00  0.98  0.00  0.00  0.00  0.87  0.00
  GQ43                    1.00   0.02  0.00  0.00  0.00  0.98  0.00  0.00  0.94  0.00
  GQ44                    1.00   0.02  0.00  0.00  0.98  0.00  0.00  0.00  0.68  0.00
  GQ45                    1.00   0.02  0.00  0.00  0.16  0.82  0.00  0.00  0.94  0.00
  GQ46                    1.00   0.02  0.00  0.00  0.31  0.67  0.00  0.00  0.77  0.00
  GQ47                    1.00   0.02  0.00  0.00  0.98  0.00  0.00  0.00  0.94  0.00
  GQ48                    1.00   0.02  0.00  0.00  0.98  0.00  0.00  0.00  0.94  0.00
  GQ49                    1.00   0.02  0.00  0.00  0.93  0.05  0.00  0.00  0.94  0.00
  GQ50                    1.00   0.02  0.00  0.00  0.98  0.00  0.00  0.00  0.94  0.00
  GQ51                    1.00   0.02  0.00  0.00  0.00  0.98  0.00  0.00  0.75  0.00
  GQ52                    1.00   0.02  0.00  0.00  0.98  0.00  0.00  0.00  0.87  0.00
  GQ53                    1.00   0.02  0.00  0.00  0.98  0.00  0.00  0.00  0.88  0.00
  GQ54                    1.00   0.02  0.00  0.00  0.98  0.00  0.00  0.00  0.94  0.00
  GQ55                    1.00   0.02  0.00  0.00  0.98  0.00  0.00  0.00  0.94  0.00
  GQ56                    1.00   0.02  0.00  0.00  0.05  0.93  0.00  0.00  0.75  0.00
  GQ57                    1.00   0.02  0.00  0.00  0.98  0.00  0.00  0.00  0.94  0.00
  GQ58                    1.00   0.02  0.00  0.00  0.98  0.00  0.00  0.00  0.94  0.00
  GQ59                    1.00   0.02  0.00  0.00  0.98  0.00  0.00  0.00  0.88  0.00
  GQ60                    1.00   0.02  0.00  0.00  0.98  0.00  0.00  0.00  0.13  0.00
  GQ61                    1.00   0.02  0.00  0.00  0.98  0.00  0.00  0.00  0.94  0.00
  GQ62                    1.00   0.02  0.00  0.00  0.98  0.00  0.00  0.00  0.94  0.00
  GQ63                    1.00   0.02  0.00  0.00  0.97  0.01  0.00  0.00  0.94  0.00
  GQ64                    1.00   0.02  0.00  0.00  0.17  0.81  0.00  0.00  0.94  0.00
  GQ65                    1.00   0.02  0.00  0.00  0.98  0.00  0.00  0.00  0.94  0.00
  GQ66                    1.00   0.02  0.00  0.00  0.97  0.01  0.00  0.00  0.94  0.00
  GQ67                    1.00   0.02  0.00  0.00  0.98  0.00  0.00  0.00  0.07  0.00
  GQ68                    1.00   0.02  0.00  0.00  0.98  0.00  0.00  0.00  0.94  0.00
  GQ69                    1.00   0.02  0.00  0.00  0.97  0.01  0.00  0.00  0.94  0.00
  GQ70                    1.00   0.02  0.00  0.00  0.00  0.98  0.00  0.00  0.02  0.00
  GQ71                    1.00   0.02  0.00  0.00  0.00  0.98  0.00  0.00  0.08  0.00
  GQ72                    1.00   0.02  0.00  0.00  0.00  0.98  0.00  0.00  0.23  0.00
  GQ73                    1.00   0.02  0.00  0.00  0.00  0.98  0.00  0.00  0.03  0.00
  GQ74                    1.00   0.02  0.00  0.00  0.91  0.07  0.00  0.00  0.94  0.00
  GQ75                    1.00   0.02  0.00  0.00  0.98  0.00  0.00  0.00  0.94  0.00
  GQ76                    1.00   0.02  0.00  0.00  0.00  0.98  0.00  0.00  0.17  0.00
  GQ77                    1.00   0.02  0.98  0.00  0.00  0.00  0.00  0.00  0.00  0.00
  GQ78                    1.00   0.02  0.00  0.00  0.91  0.07  0.00  0.00  0.90  0.00
  GQ79                    1.00   0.02  0.00  0.00  0.98  0.00  0.00  0.00  0.08  0.00
  GQ80                    1.00   0.02  0.00  0.00  0.98  0.00  0.00  0.00  0.84  0.00
  GQ81                    1.00   0.02  0.00  0.00  0.98  0.00  0.00  0.00  0.01  0.00
  GQ82                    1.00   0.02  0.00  0.00  0.96  0.02  0.00  0.00  0.94  0.00
  GQ83                    1.00   0.02  0.00  0.00  0.00  0.98  0.00  0.00  0.94  0.00
  GQ84                    1.00   0.02  0.00  0.00  0.08  0.90  0.00  0.00  0.94  0.00
  GQ85                    1.00   0.02  0.00  0.00  0.98  0.00  0.00  0.00  0.87  0.00
  GQ86                    1.00   0.02  0.00  0.00  0.98  0.00  0.00  0.00  0.94  0.00
  GQ87                    1.00   0.02  0.00  0.00  0.98  0.00  0.00  0.00  0.94  0.00
  GQ88                    1.00   0.02  0.00  0.00  0.98  0.00  0.00  0.00  0.94  0.00
  GQ89                    1.00   0.02  0.00  0.00  0.98  0.00  0.00  0.00  0.94  0.00
  GQ90                    1.00   0.02  0.00  0.00  0.97  0.01  0.00  0.00  0.94  0.00
  GQ91                    1.00   0.02  0.00  0.00  0.97  0.01  0.00  0.00  0.94  0.00
  GQ92                    1.00   0.02  0.00  0.00  0.87  0.11  0.00  0.00  0.00  0.00
  GQ93                    1.00   0.02  0.00  0.00  0.98  0.00  0.00  0.00  0.94  0.00
  GQ94                    1.00   0.02  0.00  0.00  0.17  0.81  0.00  0.00  0.00  0.00
  GQ95                    1.00   0.02  0.00  0.00  0.98  0.00  0.00  0.00  0.94  0.00
  GQ96                    1.00   0.02  0.00  0.00  0.98  0.00  0.00  0.00  0.61  0.00
  GQ97                    1.00   0.02  0.00  0.00  0.00  0.98  0.00  0.00  0.30  0.00
  GQ98                    1.00   0.02  0.00  0.00  0.98  0.00  0.00  0.00  0.89  0.00
  GQ99                    1.00   0.02  0.00  0.00  0.97  0.01  0.00  0.00  0.94  0.00
  GQ100                   1.00   0.02  0.00  0.00  0.00  0.98  0.00  0.00  0.00  0.00
  GQ101                   1.00   0.02  0.00  0.00  0.97  0.01  0.00  0.00  0.94  0.00
  GQ102                   1.00   0.02  0.00  0.00  0.97  0.01  0.00  0.00  0.94  0.00
  GQ103                   1.00   0.02  0.00  0.00  0.98  0.00  0.00  0.00  0.94  0.00
  GQ104                   1.00   0.02  0.00  0.00  0.89  0.09  0.00  0.00  0.94  0.00
  GQ105                   1.00   0.02  0.00  0.00  0.98  0.00  0.00  0.00  0.07  0.00
  GQ106                   1.00   0.02  0.00  0.00  0.97  0.01  0.00  0.00  0.94  0.00
  GQ107                   1.00   0.02  0.00  0.00  0.87  0.11  0.00  0.00  0.94  0.00
  GQ108                   1.00   0.02  0.00  0.00  0.98  0.00  0.00  0.00  0.10  0.00
  GQ109                   1.00   0.02  0.00  0.00  0.90  0.08  0.00  0.00  0.94  0.00
  GQ110                   1.00   0.02  0.00  0.00  0.97  0.01  0.00  0.00  0.94  0.00
  GQ111                   1.00   0.02  0.00  0.00  0.97  0.01  0.00  0.00  0.94  0.00
  GQ112                   1.00   0.02  0.00  0.00  0.00  0.98  0.00  0.00  0.93  0.00
  GQ113                   1.00   0.02  0.00  0.00  0.00  0.98  0.00  0.00  0.93  0.00
  GQ114                   1.00   0.02  0.00  0.00  0.98  0.00  0.00  0.00  0.09  0.00
  GQ115                   1.00   0.02  0.00  0.00  0.97  0.01  0.00  0.00  0.94  0.00
  GQ116                   1.00   0.02  0.00  0.00  0.98  0.00  0.00  0.00  0.94  0.00
  GQ117                   1.00   0.02  0.00  0.00  0.00  0.98  0.00  0.00  0.00  0.00
  GQ118                   1.00   0.02  0.00  0.00  0.31  0.67  0.00  0.00  0.94  0.00
  GQ119                   1.00   0.02  0.00  0.00  0.86  0.12  0.00  0.00  0.90  0.00
  GQ120                   1.00   0.02  0.06  0.00  0.92  0.00  0.00  0.00  0.00  0.00
  GQ121                   1.00   0.02  0.00  0.00  0.98  0.00  0.00  0.00  0.09  0.00
  GQ122                   1.00   0.02  0.00  0.00  0.93  0.05  0.00  0.00  0.94  0.00
  GQ123                   1.00   0.02  0.00  0.00  0.93  0.05  0.00  0.00  0.94  0.00
  GQ124                   1.00   0.02  0.00  0.00  0.98  0.00  0.00  0.00  0.94  0.00
  GQ125                   1.00   0.02  0.00  0.00  0.97  0.01  0.00  0.00  0.94  0.00
  GQ126                   1.00   0.02  0.00  0.00  0.97  0.01  0.00  0.00  0.94  0.00
  GQ127                   1.00   0.02  0.00  0.00  0.98  0.00  0.00  0.00  0.68  0.00
  GQ128                   1.00   0.02  0.00  0.00  0.00  0.98  0.00  0.00  0.90  0.00
  GQ129                   1.00   0.02  0.00  0.00  0.98  0.00  0.00  0.00  0.78  0.00
  GQ130                   1.00   0.02  0.00  0.00  0.79  0.19  0.00  0.00  0.77  0.00
  GQ131                   1.00   0.02  0.00  0.00  0.98  0.00  0.00  0.00  0.94  0.00
  
  
  *************************
  Conduit Surcharge Summary
  *************************
  
  ----------------------------------------------------------------------------
                                                           Hours        Hours 
                         --------- Hours Full --------   Above Full   Capacity
  Conduit                Both Ends  Upstream  Dnstream   Normal Flow   Limited
  ----------------------------------------------------------------------------
  GQ4                         1.72      1.72     14.37      0.01         0.01
  GQ5                         0.01      0.01     14.24      0.01         0.01
  GQ7                         0.69      0.69      1.06      0.01         0.01
  GQ8                         0.01      0.01      0.69      0.01         0.01
  GQ9                         0.01      0.01     14.66      0.01         0.01
  GQ10                        1.92      1.92     14.75      0.07         0.01
  GQ12                        0.01      0.01     12.36      0.01         0.01
  GQ13                        0.01      0.01      1.23      0.01         0.01
  GQ18                        0.01      0.01      7.55     10.98         0.01
  GQ24                        0.01      0.01     14.53      0.01         0.01
  GQ27                        0.01      0.01     14.02      0.01         0.01
  GQ28                        0.01      0.01     14.29      0.01         0.01
  GQ29                       13.91     13.91     14.29      0.01         0.01
  GQ30                       14.02     14.02     14.41      0.01         0.01
  GQ31                        0.01      0.01     14.81      0.01         0.01
  GQ33                        0.01      0.01     14.81      0.01         0.01
  GQ37                        0.01      0.01     14.62      0.01         0.01
  GQ38                        0.01      0.01     14.62      0.01         0.01
  GQ39                        0.01      0.01     12.36      0.01         0.01
  GQ41                        0.01      0.01     14.25      0.01         0.01
  GQ42                        0.59      0.59     14.34      0.01         0.01
  GQ43                        0.01      0.01      0.59      0.01         0.01
  GQ44                        1.77      1.77      7.55      0.01         0.01
  GQ45                        0.01      0.01      0.83      0.01         0.01
  GQ46                        0.83      0.83      1.77      0.01         0.01
  GQ47                        0.01      0.01     14.36      0.01         0.01
  GQ48                        0.01      0.01     14.47      0.01         0.01
  GQ49                        0.01      0.01     14.47      0.01         0.01
  GQ52                        0.01      0.01     13.91      0.01         0.01
  GQ53                        0.48      0.48     14.40      0.01         0.01
  GQ54                        0.01      0.01     14.49      0.01         0.01
  GQ55                        0.01      0.01     14.49      0.01         0.01
  GQ56                        0.32      0.32      0.69      0.54         0.28
  GQ57                        0.01      0.01      0.32      0.01         0.01
  GQ58                        0.01      0.01     14.13      0.01         0.01
  GQ59                        0.59      0.59     14.13      0.01         0.01
  GQ60                        0.01      0.01      0.80      0.01         0.01
  GQ61                        0.01      0.01     12.23      0.01         0.01
  GQ62                        0.01      0.01     12.83      0.01         0.01
  GQ63                        0.01      0.01     13.51      0.01         0.01
  GQ66                        0.01      0.01     13.42      0.01         0.01
  GQ67                       12.33     12.33     12.80      0.01         0.01
  GQ68                        0.01      0.01     13.91      0.01         0.01
  GQ69                        0.01      0.01     14.31      0.01         0.01
  GQ75                        0.01      0.01     13.89      0.01         0.01
  GQ78                        0.01      0.01     14.56      0.01         0.01
  GQ79                        0.01      0.01     14.56      0.01         0.01
  GQ80                        0.01      0.01     10.62      0.01         0.01
  GQ81                       10.58     10.62     12.36      8.25         6.52
  GQ82                        0.01      0.01     12.36      0.01         0.01
  GQ84                        0.01      0.01      0.75      0.01         0.01
  GQ85                        0.01      0.01     14.83      0.01         0.01
  GQ86                        0.01      0.01     14.36      0.01         0.01
  GQ87                        0.01      0.01     14.36      0.01         0.01
  GQ88                        0.01      0.01     14.42      0.01         0.01
  GQ89                        0.01      0.01     14.01      0.01         0.01
  GQ90                        0.01      0.01     13.78      0.01         0.01
  GQ91                        0.01      0.01     14.15      0.01         0.01
  GQ95                        0.01      0.01     14.49      0.01         0.01
  GQ98                        0.01      0.01     14.30      0.01         0.01
  GQ99                        0.01      0.01     13.15      0.01         0.01
  GQ101                       0.01      0.01     14.15      0.01         0.01
  GQ102                       0.01      0.01     14.27      0.01         0.01
  GQ103                       0.01      0.01     14.46      0.01         0.01
  GQ104                       0.01      0.01     14.46      0.01         0.01
  GQ105                      14.22     14.22     14.27     12.04         0.01
  GQ106                       0.01      0.01     14.28      0.01         0.01
  GQ107                       0.01      0.01     14.28      0.01         0.01
  GQ108                       8.67      8.67     14.22      0.01         0.01
  GQ110                       0.01      0.01     13.89      0.01         0.01
  GQ111                       0.01      0.01     14.15      0.01         0.01
  GQ114                       0.01      0.01     14.45      0.01         0.01
  GQ116                       0.01      0.01     14.34      0.01         0.01
  GQ119                       0.01      0.01     14.51      0.01         0.01
  GQ120                       0.01      0.01     14.42      0.01         0.01
  GQ121                      14.26     14.26     14.51      0.01         0.01
  GQ122                       0.01      0.01     14.26      0.01         0.01
  GQ123                       0.01      0.01     14.29      0.01         0.01
  GQ125                       0.01      0.01     14.15      0.01         0.01
  GQ126                       0.01      0.01     14.15      0.01         0.01
  GQ129                       1.06      1.06     14.53      0.01         0.01
  GQ130                       1.26      1.26     15.10      0.01         0.01
  GQ131                       0.01      0.01     14.83      0.01         0.01
  

  Analysis begun on:  Wed Mar 29 16:30:36 2023
  Analysis ended on:  Wed Mar 29 16:31:17 2023
  Total elapsed time: 00:00:41